*SPEF "ieee 1481-1999"
*DESIGN "alu"
*DATE "13:14:37 Thursday July 10, 2025"
*VENDOR "The OpenROAD Project"
*PROGRAM "OpenROAD"
*VERSION "b16bda7e82721d10566ff7e2b68f1ff0be9f9e38"
*DESIGN_FLOW "NAME_SCOPE LOCAL" "PIN_CAP NONE"
*DIVIDER /
*DELIMITER :
*BUS_DELIMITER []
*T_UNIT 1 NS
*C_UNIT 1 PF
*R_UNIT 1 OHM
*L_UNIT 1 HENRY

*NAME_MAP
*1 A[0]
*2 A[1]
*3 A[2]
*4 A[3]
*5 B[0]
*6 B[1]
*7 B[2]
*8 B[3]
*9 SEL[0]
*10 SEL[1]
*13 Y[0]
*14 Y[1]
*15 Y[2]
*16 Y[3]
*17 _00_
*18 _01_
*19 _02_
*20 _03_
*21 _04_
*22 _05_
*23 _06_
*24 _07_
*25 _08_
*26 _09_
*27 _10_
*28 _11_
*29 _12_
*30 _13_
*31 _14_
*32 _15_
*33 _16_
*34 _17_
*35 _18_
*36 _19_
*37 _20_
*38 _21_
*39 _22_
*40 _23_
*41 _24_
*42 _25_
*43 _26_
*44 _27_
*45 _28_
*46 _29_
*47 net1
*48 net10
*49 net11
*50 net12
*51 net13
*52 net14
*53 net2
*54 net3
*55 net4
*56 net5
*57 net6
*58 net7
*59 net8
*60 net9
*61 FILLER_0_0_15
*62 FILLER_0_0_20
*63 FILLER_0_0_27
*64 FILLER_0_0_29
*65 FILLER_0_0_3
*66 FILLER_0_0_35
*67 FILLER_0_0_47
*68 FILLER_0_0_55
*69 FILLER_0_0_57
*70 FILLER_0_0_65
*71 FILLER_0_10_15
*72 FILLER_0_10_27
*73 FILLER_0_10_29
*74 FILLER_0_10_3
*75 FILLER_0_10_41
*76 FILLER_0_10_53
*77 FILLER_0_10_57
*78 FILLER_0_11_15
*79 FILLER_0_11_27
*80 FILLER_0_11_29
*81 FILLER_0_11_3
*82 FILLER_0_11_37
*83 FILLER_0_11_49
*84 FILLER_0_11_55
*85 FILLER_0_11_57
*86 FILLER_0_11_65
*87 FILLER_0_1_15
*88 FILLER_0_1_24
*89 FILLER_0_1_3
*90 FILLER_0_1_36
*91 FILLER_0_1_44
*92 FILLER_0_1_51
*93 FILLER_0_1_55
*94 FILLER_0_1_57
*95 FILLER_0_2_3
*96 FILLER_0_2_38
*97 FILLER_0_2_59
*98 FILLER_0_2_63
*99 FILLER_0_3_15
*100 FILLER_0_3_20
*101 FILLER_0_3_3
*102 FILLER_0_3_32
*103 FILLER_0_3_44
*104 FILLER_0_3_48
*105 FILLER_0_3_52
*106 FILLER_0_3_57
*107 FILLER_0_3_65
*108 FILLER_0_4_15
*109 FILLER_0_4_27
*110 FILLER_0_4_29
*111 FILLER_0_4_3
*112 FILLER_0_4_37
*113 FILLER_0_4_46
*114 FILLER_0_5_15
*115 FILLER_0_5_27
*116 FILLER_0_5_3
*117 FILLER_0_5_33
*118 FILLER_0_5_38
*119 FILLER_0_5_42
*120 FILLER_0_5_46
*121 FILLER_0_5_57
*122 FILLER_0_5_63
*123 FILLER_0_6_11
*124 FILLER_0_6_19
*125 FILLER_0_6_27
*126 FILLER_0_6_29
*127 FILLER_0_6_3
*128 FILLER_0_6_41
*129 FILLER_0_6_53
*130 FILLER_0_7_18
*131 FILLER_0_7_22
*132 FILLER_0_7_30
*133 FILLER_0_7_36
*134 FILLER_0_7_55
*135 FILLER_0_7_6
*136 FILLER_0_7_62
*137 FILLER_0_8_27
*138 FILLER_0_8_3
*139 FILLER_0_8_37
*140 FILLER_0_8_63
*141 FILLER_0_8_67
*142 FILLER_0_8_9
*143 FILLER_0_9_12
*144 FILLER_0_9_20
*145 FILLER_0_9_27
*146 FILLER_0_9_39
*147 FILLER_0_9_47
*148 FILLER_0_9_55
*149 FILLER_0_9_57
*150 FILLER_0_9_6
*151 FILLER_0_9_63
*152 PHY_EDGE_ROW_0_Left_12
*153 PHY_EDGE_ROW_0_Right_0
*154 PHY_EDGE_ROW_10_Left_22
*155 PHY_EDGE_ROW_10_Right_10
*156 PHY_EDGE_ROW_11_Left_23
*157 PHY_EDGE_ROW_11_Right_11
*158 PHY_EDGE_ROW_1_Left_13
*159 PHY_EDGE_ROW_1_Right_1
*160 PHY_EDGE_ROW_2_Left_14
*161 PHY_EDGE_ROW_2_Right_2
*162 PHY_EDGE_ROW_3_Left_15
*163 PHY_EDGE_ROW_3_Right_3
*164 PHY_EDGE_ROW_4_Left_16
*165 PHY_EDGE_ROW_4_Right_4
*166 PHY_EDGE_ROW_5_Left_17
*167 PHY_EDGE_ROW_5_Right_5
*168 PHY_EDGE_ROW_6_Left_18
*169 PHY_EDGE_ROW_6_Right_6
*170 PHY_EDGE_ROW_7_Left_19
*171 PHY_EDGE_ROW_7_Right_7
*172 PHY_EDGE_ROW_8_Left_20
*173 PHY_EDGE_ROW_8_Right_8
*174 PHY_EDGE_ROW_9_Left_21
*175 PHY_EDGE_ROW_9_Right_9
*176 TAP_TAPCELL_ROW_0_24
*177 TAP_TAPCELL_ROW_0_25
*178 TAP_TAPCELL_ROW_10_35
*179 TAP_TAPCELL_ROW_11_36
*180 TAP_TAPCELL_ROW_11_37
*181 TAP_TAPCELL_ROW_1_26
*182 TAP_TAPCELL_ROW_2_27
*183 TAP_TAPCELL_ROW_3_28
*184 TAP_TAPCELL_ROW_4_29
*185 TAP_TAPCELL_ROW_5_30
*186 TAP_TAPCELL_ROW_6_31
*187 TAP_TAPCELL_ROW_7_32
*188 TAP_TAPCELL_ROW_8_33
*189 TAP_TAPCELL_ROW_9_34
*190 _30_
*191 _31_
*192 _32_
*193 _33_
*194 _34_
*195 _35_
*196 _36_
*197 _37_
*198 _38_
*199 _39_
*200 _40_
*201 _41_
*202 _42_
*203 _43_
*204 _44_
*205 _45_
*206 _46_
*207 _47_
*208 _48_
*209 _49_
*210 _50_
*211 _51_
*212 _52_
*213 _53_
*214 _54_
*215 _55_
*216 _56_
*217 _57_
*218 _58_
*219 _59_
*220 _60_
*221 _61_
*222 _62_
*223 _63_
*224 input1
*225 input10
*226 input2
*227 input3
*228 input4
*229 input5
*230 input6
*231 input7
*232 input8
*233 input9
*234 output11
*235 output12
*236 output13
*237 output14

*PORTS
A[0] I
A[1] I
A[2] I
A[3] I
B[0] I
B[1] I
B[2] I
B[3] I
SEL[0] I
SEL[1] I
Y[0] O
Y[1] O
Y[2] O
Y[3] O

*D_NET *1 0.000827383
*CONN
*P A[0] I
*I *224:A I *D sky130_fd_sc_hd__buf_1
*CAP
1 A[0] 0.00039167
2 *224:A 0.00039167
3 *224:A Y[0] 4.40437e-05
*RES
1 A[0] *224:A 48.2212 
*END

*D_NET *2 0.000764565
*CONN
*P A[1] I
*I *226:A I *D sky130_fd_sc_hd__buf_1
*CAP
1 A[1] 0.000341823
2 *226:A 0.000341823
3 *226:A Y[1] 4.468e-05
4 *226:A *229:A 0
5 *226:A *233:A 3.62398e-05
*RES
1 A[1] *226:A 47.5169 
*END

*D_NET *3 0.000718359
*CONN
*P A[2] I
*I *227:A I *D sky130_fd_sc_hd__buf_1
*CAP
1 A[2] 0.000345223
2 *227:A 0.000345223
3 *227:A *231:A 2.79122e-05
4 *227:A *54:10 0
*RES
1 A[2] *227:A 49.5439 
*END

*D_NET *4 0.00100699
*CONN
*P A[3] I
*I *228:A I *D sky130_fd_sc_hd__clkbuf_1
*CAP
1 A[3] 0.000494325
2 *228:A 0.000494325
3 *228:A Y[3] 0
4 *228:A *8:17 0
5 *228:A *55:10 1.83408e-05
*RES
1 A[3] *228:A 48.2743 
*END

*D_NET *5 0.00108946
*CONN
*P B[0] I
*I *229:A I *D sky130_fd_sc_hd__clkbuf_2
*CAP
1 B[0] 0.000509897
2 *229:A 0.000509897
3 *229:A Y[0] 0
4 *229:A *233:A 3.62398e-05
5 *229:A *10:13 3.34269e-05
6 *226:A *229:A 0
*RES
1 B[0] *229:A 49.0114 
*END

*D_NET *6 0.000722943
*CONN
*P B[1] I
*I *230:A I *D sky130_fd_sc_hd__dlymetal6s2s_1
*CAP
1 B[1] 0.000343352
2 *230:A 0
3 *6:13 0.000343352
4 *6:13 Y[1] 3.62398e-05
*RES
1 B[1] *6:13 27.6712 
2 *6:13 *230:A 23 
*END

*D_NET *7 0.000612472
*CONN
*P B[2] I
*I *231:A I *D sky130_fd_sc_hd__buf_1
*CAP
1 B[2] 0.00029228
2 *231:A 0.00029228
3 *227:A *231:A 2.79122e-05
*RES
1 B[2] *231:A 49.8062 
*END

*D_NET *8 0.00138161
*CONN
*P B[3] I
*I *232:A I *D sky130_fd_sc_hd__clkbuf_1
*CAP
1 B[3] 0.000679291
2 *232:A 0
3 *8:17 0.000679291
4 *8:17 *55:10 2.30292e-05
5 *228:A *8:17 0
*RES
1 B[3] *8:17 30.1214 
2 *8:17 *232:A 23 
*END

*D_NET *9 0.000673821
*CONN
*P SEL[0] I
*I *233:A I *D sky130_fd_sc_hd__buf_1
*CAP
1 SEL[0] 0.000300671
2 *233:A 0.000300671
3 *226:A *233:A 3.62398e-05
4 *229:A *233:A 3.62398e-05
*RES
1 SEL[0] *233:A 49.9669 
*END

*D_NET *10 0.000756913
*CONN
*P SEL[1] I
*I *225:A I *D sky130_fd_sc_hd__dlymetal6s2s_1
*CAP
1 SEL[1] 0.000343623
2 *225:A 0
3 *10:13 0.000343623
4 *10:13 Y[0] 3.62398e-05
5 *229:A *10:13 3.34269e-05
*RES
1 SEL[1] *10:13 28.3755 
2 *10:13 *225:A 23 
*END

*D_NET *13 0.000885918
*CONN
*P Y[0] O
*I *234:X O *D sky130_fd_sc_hd__buf_2
*CAP
1 Y[0] 0.000389451
2 *234:X 0.000389451
3 Y[0] *49:10 2.67315e-05
4 *224:A Y[0] 4.40437e-05
5 *229:A Y[0] 0
6 *10:13 Y[0] 3.62398e-05
*RES
1 *234:X Y[0] 47.6028 
*END

*D_NET *14 0.000999857
*CONN
*P Y[1] O
*I *235:X O *D sky130_fd_sc_hd__buf_2
*CAP
1 Y[1] 0.000459469
2 *235:X 0.000459469
3 *226:A Y[1] 4.468e-05
4 *6:13 Y[1] 3.62398e-05
*RES
1 *235:X Y[1] 48.6592 
*END

*D_NET *15 0.000881079
*CONN
*P Y[2] O
*I *236:X O *D sky130_fd_sc_hd__clkbuf_4
*CAP
1 Y[2] 0.000440539
2 *236:X 0.000440539
*RES
1 *236:X Y[2] 47.6736 
*END

*D_NET *16 0.000937264
*CONN
*P Y[3] O
*I *237:X O *D sky130_fd_sc_hd__buf_2
*CAP
1 Y[3] 0.000468632
2 *237:X 0.000468632
3 *228:A Y[3] 0
*RES
1 *237:X Y[3] 47.0936 
*END

*D_NET *17 0.00667082
*CONN
*I *203:A I *D sky130_fd_sc_hd__nand2_1
*I *204:C1 I *D sky130_fd_sc_hd__a211o_1
*I *191:A I *D sky130_fd_sc_hd__or2_1
*I *211:A I *D sky130_fd_sc_hd__nand2_1
*I *212:C1 I *D sky130_fd_sc_hd__a211o_1
*I *190:Y O *D sky130_fd_sc_hd__inv_2
*CAP
1 *203:A 0
2 *204:C1 2.9328e-05
3 *191:A 3.73824e-05
4 *211:A 0
5 *212:C1 0
6 *190:Y 0.000192695
7 *17:76 0.000848176
8 *17:53 0.00119893
9 *17:35 0.00040138
10 *17:22 0.000223126
11 *17:14 0.000820471
12 *17:12 0.000266303
13 *17:10 0.000354382
14 *17:8 0.000192695
15 *204:C1 *204:A2 9.77405e-05
16 *204:C1 *204:B1 9.77405e-05
17 *17:8 *18:12 0.000144146
18 *17:8 *18:28 1.51481e-05
19 *17:12 *212:A1 1.84831e-05
20 *17:14 *212:A1 2.69767e-05
21 *17:14 *18:8 5.3304e-05
22 *17:14 *58:21 0.000320405
23 *17:22 *40:20 6.33771e-05
24 *17:22 *58:8 5.56356e-05
25 *17:22 *58:21 0.000264269
26 *17:35 *36:10 0.000232292
27 *17:35 *37:8 0.000135768
28 *17:35 *54:44 1.35764e-05
29 *17:53 *204:A2 0.000277525
30 *17:53 *212:A1 1.84917e-05
31 *17:53 *21:10 2.50756e-05
32 *17:53 *60:38 4.29638e-05
33 *17:76 *203:B 5.3304e-05
34 *17:76 *204:A2 3.87221e-06
35 *17:76 *21:10 5.1986e-06
36 *17:76 *26:10 0.00013449
37 *17:76 *29:14 6.17437e-06
38 *17:76 *57:35 0
*RES
1 *190:Y *17:8 42.3707 
2 *17:8 *17:10 15 
3 *17:10 *17:12 0.621429 
4 *17:12 *17:14 4.43286 
5 *17:14 *17:22 34.3293 
6 *17:22 *212:C1 23 
7 *17:14 *17:35 38.5343 
8 *17:35 *211:A 23 
9 *17:12 *191:A 23.8493 
10 *17:10 *17:53 20.7586 
11 *17:53 *204:C1 39.0979 
12 *17:53 *17:76 35.377 
13 *17:76 *203:A 23 
*END

*D_NET *18 0.00546196
*CONN
*I *213:A2 I *D sky130_fd_sc_hd__o211a_1
*I *205:A2 I *D sky130_fd_sc_hd__o211a_1
*I *193:A1 I *D sky130_fd_sc_hd__mux2_1
*I *223:A1 I *D sky130_fd_sc_hd__o221a_1
*I *191:X O *D sky130_fd_sc_hd__or2_1
*CAP
1 *213:A2 0.000165138
2 *205:A2 0
3 *193:A1 0.000188875
4 *223:A1 6.12686e-05
5 *191:X 4.99221e-05
6 *18:38 0.000614203
7 *18:28 0.000995967
8 *18:12 0.000835069
9 *18:8 0.000851474
10 *193:A1 *193:A0 0.000100069
11 *193:A1 *21:8 2.07484e-05
12 *193:A1 *48:36 0.000353978
13 *213:A2 *213:A1 5.46749e-05
14 *213:A2 *31:8 0.000112944
15 *223:A1 *223:B2 5.56279e-05
16 *223:A1 *48:36 0.000100486
17 *18:12 *219:A3 0.000371239
18 *18:12 *22:21 6.35028e-05
19 *18:12 *48:18 7.6774e-06
20 *18:12 *58:21 0.000166387
21 *18:28 *30:10 0
22 *18:28 *58:21 4.90185e-05
23 *18:38 *202:A 2.05503e-05
24 *18:38 *57:87 1.05441e-05
25 *17:8 *18:12 0.000144146
26 *17:8 *18:28 1.51481e-05
27 *17:14 *18:8 5.3304e-05
*RES
1 *191:X *18:8 38.6214 
2 *18:8 *18:12 28.5264 
3 *18:12 *223:A1 24.5743 
4 *18:12 *193:A1 28.3857 
5 *18:8 *18:28 3.49036 
6 *18:28 *18:38 32.3216 
7 *18:38 *205:A2 23 
8 *18:28 *213:A2 42.4639 
*END

*D_NET *19 0.00024177
*CONN
*I *193:S I *D sky130_fd_sc_hd__mux2_1
*I *192:Y O *D sky130_fd_sc_hd__nand2_1
*CAP
1 *193:S 0
2 *192:Y 0.000102042
3 *19:8 0.000102042
4 *19:8 *21:10 3.76854e-05
5 *19:8 *48:34 0
*RES
1 *192:Y *19:8 39.9057 
2 *19:8 *193:S 38 
*END

*D_NET *20 0.000566807
*CONN
*I *194:B1 I *D sky130_fd_sc_hd__o21a_1
*I *193:X O *D sky130_fd_sc_hd__mux2_1
*CAP
1 *194:B1 0
2 *193:X 0.000211157
3 *20:10 0.000211157
4 *20:10 *193:A0 4.21048e-05
5 *20:10 *48:36 0.000102389
*RES
1 *193:X *20:10 41.48 
2 *20:10 *194:B1 38 
*END

*D_NET *21 0.00383351
*CONN
*I *202:A I *D sky130_fd_sc_hd__xnor2_1
*I *206:A1 I *D sky130_fd_sc_hd__a21o_1
*I *195:X O *D sky130_fd_sc_hd__or2b_1
*CAP
1 *202:A 0.000287881
2 *206:A1 0.000168585
3 *195:X 0.00019654
4 *21:10 0.00129482
5 *21:8 0.0010349
6 *202:A *26:22 1.12751e-05
7 *202:A *27:10 1.63351e-05
8 *202:A *30:10 2.2839e-05
9 *202:A *57:12 0
10 *202:A *57:87 7.08192e-05
11 *206:A1 *206:B1 4.40271e-05
12 *206:A1 *29:14 1.3523e-05
13 *21:10 *196:B_N 0.00030009
14 *21:10 *30:10 3.54728e-05
15 *21:10 *48:34 0.00015192
16 *21:10 *60:29 7.52243e-05
17 *193:A1 *21:8 2.07484e-05
18 *17:53 *21:10 2.50756e-05
19 *17:76 *21:10 5.1986e-06
20 *18:38 *202:A 2.05503e-05
21 *19:8 *21:10 3.76854e-05
*RES
1 *195:X *21:8 40.5271 
2 *21:8 *21:10 15.2871 
3 *21:10 *206:A1 40.1957 
4 *21:10 *202:A 43.1164 
*END

*D_NET *22 0.00258439
*CONN
*I *198:A2 I *D sky130_fd_sc_hd__a21oi_1
*I *197:C I *D sky130_fd_sc_hd__and3_1
*I *207:B1 I *D sky130_fd_sc_hd__o21ai_1
*I *219:B1 I *D sky130_fd_sc_hd__o31a_1
*I *196:X O *D sky130_fd_sc_hd__or2b_1
*CAP
1 *198:A2 4.12101e-05
2 *197:C 3.05022e-05
3 *207:B1 9.06395e-05
4 *219:B1 0.000138967
5 *196:X 0
6 *22:30 0.000191146
7 *22:21 0.000286002
8 *22:4 0.000214896
9 *197:C *56:16 3.79652e-05
10 *198:A2 *56:16 6.51951e-05
11 *198:A2 *56:41 5.47983e-06
12 *198:A2 *57:41 7.40718e-05
13 *207:B1 *207:A1 7.17698e-05
14 *207:B1 *32:10 3.68102e-05
15 *207:B1 *57:50 0.000182213
16 *207:B1 *57:58 0.000102551
17 *219:B1 *219:A1 0.000130985
18 *219:B1 *219:A3 0.000102804
19 *22:21 *48:18 0.000137744
20 *22:30 *207:A1 0.00016869
21 *22:30 *56:16 2.32787e-05
22 *22:30 *57:50 0.000387969
23 *18:12 *22:21 6.35028e-05
*RES
1 *196:X *22:4 23 
2 *22:4 *219:B1 26.8736 
3 *22:4 *22:21 31.9057 
4 *22:21 *207:B1 26.0036 
5 *22:21 *22:30 4.43286 
6 *22:30 *197:C 24.0771 
7 *22:30 *198:A2 25.0714 
*END

*D_NET *23 0.00157104
*CONN
*I *199:A1 I *D sky130_fd_sc_hd__o21a_1
*I *200:B I *D sky130_fd_sc_hd__or3_1
*I *197:X O *D sky130_fd_sc_hd__and3_1
*CAP
1 *199:A1 0
2 *200:B 0.000129059
3 *197:X 0.000333635
4 *23:12 0.000129059
5 *23:10 0.000333635
6 *200:B *199:A2 5.3304e-05
7 *200:B *200:C 4.98398e-05
8 *200:B *53:17 1.21972e-05
9 *23:10 *200:C 5.11564e-05
10 *23:10 *204:A2 1.00084e-05
11 *23:10 *24:8 0.000295041
12 *23:10 *56:6 1.35999e-05
13 *23:10 *56:8 5.81185e-05
14 *23:10 *56:16 0.000102389
*RES
1 *197:X *23:10 44.2971 
2 *23:10 *23:12 15 
3 *23:12 *200:B 25.5686 
4 *23:12 *199:A1 23 
*END

*D_NET *24 0.00174498
*CONN
*I *200:C I *D sky130_fd_sc_hd__or3_1
*I *199:A2 I *D sky130_fd_sc_hd__o21a_1
*I *198:Y O *D sky130_fd_sc_hd__a21oi_1
*CAP
1 *200:C 7.72976e-05
2 *199:A2 8.55276e-05
3 *198:Y 0.000147357
4 *24:8 0.000310182
5 *199:A2 *204:A2 7.51453e-06
6 *199:A2 *53:17 6.57815e-06
7 *200:C *204:A2 1.12508e-05
8 *200:C *53:17 9.66668e-05
9 *200:C *57:35 8.52882e-05
10 *24:8 *56:41 6.66613e-05
11 *24:8 *57:35 0.000336945
12 *24:8 *57:41 6.437e-05
13 *200:B *199:A2 5.3304e-05
14 *200:B *200:C 4.98398e-05
15 *23:10 *200:C 5.11564e-05
16 *23:10 *24:8 0.000295041
*RES
1 *198:Y *24:8 43.4271 
2 *24:8 *199:A2 39.0979 
3 *24:8 *200:C 40.2993 
*END

*D_NET *25 0.00288896
*CONN
*I *206:B1 I *D sky130_fd_sc_hd__a21o_1
*I *201:A_N I *D sky130_fd_sc_hd__and2b_1
*I *199:X O *D sky130_fd_sc_hd__o21a_1
*CAP
1 *206:B1 0.00030822
2 *201:A_N 0
3 *199:X 0.000409249
4 *25:12 0.00030822
5 *25:10 0.000409249
6 *206:B1 *203:B 0.000236495
7 *206:B1 *26:22 0.000337343
8 *206:B1 *29:14 0.000291188
9 *25:10 *204:B1 9.88259e-05
10 *25:10 *26:10 0.000110267
11 *25:10 *53:8 1.61385e-05
12 *25:10 *53:17 0.00031453
13 *25:10 *57:35 5.20619e-06
14 *206:A1 *206:B1 4.40271e-05
*RES
1 *199:X *25:10 44.4629 
2 *25:10 *25:12 15 
3 *25:12 *201:A_N 23 
4 *25:12 *206:B1 32.8807 
*END

*D_NET *26 0.00215175
*CONN
*I *201:B I *D sky130_fd_sc_hd__and2b_1
*I *206:A2 I *D sky130_fd_sc_hd__a21o_1
*I *200:X O *D sky130_fd_sc_hd__or3_1
*CAP
1 *201:B 0
2 *206:A2 0
3 *200:X 0.000180729
4 *26:22 0.000285866
5 *26:14 0.000375893
6 *26:10 0.000270756
7 *26:10 *53:8 2.07484e-05
8 *26:14 *203:B 0.000176248
9 *26:22 *203:B 9.66668e-05
10 *26:22 *27:10 0.000140927
11 *26:22 *30:10 1.05441e-05
12 *202:A *26:22 1.12751e-05
13 *206:B1 *26:22 0.000337343
14 *17:76 *26:10 0.00013449
15 *25:10 *26:10 0.000110267
*RES
1 *200:X *26:10 41.2314 
2 *26:10 *26:14 17.0507 
3 *26:14 *26:22 36.235 
4 *26:22 *206:A2 23 
5 *26:14 *201:B 23 
*END

*D_NET *27 0.000670977
*CONN
*I *202:B I *D sky130_fd_sc_hd__xnor2_1
*I *201:X O *D sky130_fd_sc_hd__and2b_1
*CAP
1 *202:B 0
2 *201:X 0.00018351
3 *27:10 0.00018351
4 *27:10 *50:8 6.16577e-05
5 *27:10 *57:87 8.50366e-05
6 *202:A *27:10 1.63351e-05
7 *26:22 *27:10 0.000140927
*RES
1 *201:X *27:10 41.48 
2 *27:10 *202:B 38 
*END

*D_NET *28 0.0013265
*CONN
*I *203:B I *D sky130_fd_sc_hd__nand2_1
*I *202:Y O *D sky130_fd_sc_hd__xnor2_1
*CAP
1 *203:B 0.000138756
2 *202:Y 7.92138e-05
3 *28:8 0.00021797
4 *203:B *29:14 8.48502e-06
5 *28:8 *50:8 0.000160074
6 *28:8 *57:10 2.66471e-05
7 *28:8 *57:12 0.000132638
8 *206:B1 *203:B 0.000236495
9 *17:76 *203:B 5.3304e-05
10 *26:14 *203:B 0.000176248
11 *26:22 *203:B 9.66668e-05
*RES
1 *202:Y *28:8 40.2579 
2 *28:8 *203:B 42.4536 
*END

*D_NET *29 0.0013651
*CONN
*I *205:B1 I *D sky130_fd_sc_hd__o211a_1
*I *203:Y O *D sky130_fd_sc_hd__nand2_1
*CAP
1 *205:B1 0
2 *203:Y 0.000522865
3 *29:14 0.000522865
4 *203:B *29:14 8.48502e-06
5 *206:A1 *29:14 1.3523e-05
6 *206:B1 *29:14 0.000291188
7 *17:76 *29:14 6.17437e-06
*RES
1 *203:Y *29:14 31.0993 
2 *29:14 *205:B1 23 
*END

*D_NET *30 0.000721693
*CONN
*I *205:C1 I *D sky130_fd_sc_hd__o211a_1
*I *204:X O *D sky130_fd_sc_hd__a211o_1
*CAP
1 *205:C1 0
2 *204:X 0.000242098
3 *30:10 0.000242098
4 *30:10 *60:29 2.1819e-05
5 *30:10 *60:38 0.000146822
6 *202:A *30:10 2.2839e-05
7 *18:28 *30:10 0
8 *21:10 *30:10 3.54728e-05
9 *26:22 *30:10 1.05441e-05
*RES
1 *204:X *30:10 41.9564 
2 *30:10 *205:C1 38 
*END

*D_NET *31 0.00295264
*CONN
*I *216:A1 I *D sky130_fd_sc_hd__a21oi_1
*I *210:A I *D sky130_fd_sc_hd__xnor2_1
*I *206:X O *D sky130_fd_sc_hd__a21o_1
*CAP
1 *216:A1 0
2 *210:A 0
3 *206:X 0.000536267
4 *31:26 0.000564841
5 *31:8 0.00110111
6 *31:8 *213:A1 0.000269856
7 *31:8 *216:A2 2.46906e-05
8 *31:8 *216:B1 1.81365e-05
9 *31:8 *54:38 1.5259e-05
10 *31:26 *211:B 0.000197245
11 *31:26 *216:A2 5.56356e-05
12 *31:26 *40:20 5.44105e-05
13 *31:26 *54:44 2.24366e-06
14 *213:A2 *31:8 0.000112944
*RES
1 *206:X *31:8 30.7886 
2 *31:8 *31:26 40.005 
3 *31:26 *210:A 23 
4 *31:8 *216:A1 23 
*END

*D_NET *32 0.00208158
*CONN
*I *208:B I *D sky130_fd_sc_hd__xnor2_1
*I *207:Y O *D sky130_fd_sc_hd__o21ai_1
*CAP
1 *208:B 0.000336243
2 *207:Y 0.000177706
3 *32:10 0.00051395
4 *208:B *208:A 0.000853614
5 *32:10 *219:A3 0.000138747
6 *32:10 *58:21 2.45092e-05
7 *207:B1 *32:10 3.68102e-05
*RES
1 *207:Y *32:10 41.3557 
2 *32:10 *208:B 47.1971 
*END

*D_NET *33 0.00130279
*CONN
*I *209:B I *D sky130_fd_sc_hd__xnor2_1
*I *215:A_N I *D sky130_fd_sc_hd__and2b_1
*I *208:Y O *D sky130_fd_sc_hd__xnor2_1
*CAP
1 *209:B 3.72862e-05
2 *215:A_N 0.000173701
3 *208:Y 0.000344363
4 *33:10 0.000555351
5 *209:B *54:10 3.8696e-05
6 *215:A_N *216:A2 5.56356e-05
7 *215:A_N *54:23 9.77611e-05
*RES
1 *208:Y *33:10 43.4686 
2 *33:10 *215:A_N 41.0036 
3 *33:10 *209:B 38.8493 
*END

*D_NET *34 0.00133409
*CONN
*I *210:B I *D sky130_fd_sc_hd__xnor2_1
*I *216:A2 I *D sky130_fd_sc_hd__a21oi_1
*I *209:Y O *D sky130_fd_sc_hd__xnor2_1
*CAP
1 *210:B 0.000163209
2 *216:A2 0.000157689
3 *209:Y 5.85754e-05
4 *34:8 0.000379473
5 *216:A2 *216:B1 2.95526e-05
6 *216:A2 *40:10 5.3304e-05
7 *216:A2 *54:23 0.000234287
8 *216:A2 *54:38 0.000122035
9 *34:8 *40:20 0
10 *215:A_N *216:A2 5.56356e-05
11 *31:8 *216:A2 2.46906e-05
12 *31:26 *216:A2 5.56356e-05
*RES
1 *209:Y *34:8 38.8493 
2 *34:8 *216:A2 42.9093 
3 *34:8 *210:B 40.9621 
*END

*D_NET *35 0.000469288
*CONN
*I *211:B I *D sky130_fd_sc_hd__nand2_1
*I *210:Y O *D sky130_fd_sc_hd__xnor2_1
*CAP
1 *211:B 0.000136022
2 *210:Y 0.000136022
3 *31:26 *211:B 0.000197245
*RES
1 *210:Y *211:B 49.3764 
*END

*D_NET *36 0.000879547
*CONN
*I *213:B1 I *D sky130_fd_sc_hd__o211a_1
*I *211:Y O *D sky130_fd_sc_hd__nand2_1
*CAP
1 *213:B1 0
2 *211:Y 0.000323627
3 *36:10 0.000323627
4 *17:35 *36:10 0.000232292
*RES
1 *211:Y *36:10 43.2614 
2 *36:10 *213:B1 38 
*END

*D_NET *37 0.000354585
*CONN
*I *213:C1 I *D sky130_fd_sc_hd__o211a_1
*I *212:X O *D sky130_fd_sc_hd__a211o_1
*CAP
1 *213:C1 0
2 *212:X 8.53721e-05
3 *37:8 8.53721e-05
4 *37:8 *54:44 4.80733e-05
5 *17:35 *37:8 0.000135768
*RES
1 *212:X *37:8 39.9057 
2 *37:8 *213:C1 38 
*END

*D_NET *38 0.00216585
*CONN
*I *218:B I *D sky130_fd_sc_hd__nor2_1
*I *223:A2 I *D sky130_fd_sc_hd__o221a_1
*I *214:X O *D sky130_fd_sc_hd__and2_1
*CAP
1 *218:B 0.000115416
2 *223:A2 0.000445179
3 *214:X 0.000169099
4 *38:8 0.000729693
5 *218:B *218:A 3.96108e-05
6 *218:B *40:20 7.84832e-05
7 *218:B *42:8 7.65052e-05
8 *223:A2 *220:A 4.80365e-05
9 *223:A2 *220:B 0.000103405
10 *223:A2 *221:B 5.58003e-05
11 *223:A2 *223:B2 3.22051e-05
12 *223:A2 *40:20 2.193e-05
13 *223:A2 *45:10 2.27859e-05
14 *38:8 *218:A 2.02217e-05
15 *38:8 *222:B 7.34938e-05
16 *38:8 *40:20 2.58781e-05
17 *38:8 *41:10 2.23467e-05
18 *38:8 *42:8 8.57577e-05
*RES
1 *214:X *38:8 40.9621 
2 *38:8 *223:A2 45.3329 
3 *38:8 *218:B 40.8793 
*END

*D_NET *39 0.000179346
*CONN
*I *216:B1 I *D sky130_fd_sc_hd__a21oi_1
*I *215:X O *D sky130_fd_sc_hd__and2b_1
*CAP
1 *216:B1 6.58285e-05
2 *215:X 6.58285e-05
3 *216:A2 *216:B1 2.95526e-05
4 *31:8 *216:B1 1.81365e-05
*RES
1 *215:X *216:B1 47.1186 
*END

*D_NET *40 0.00286287
*CONN
*I *221:A I *D sky130_fd_sc_hd__xnor2_1
*I *216:Y O *D sky130_fd_sc_hd__a21oi_1
*CAP
1 *221:A 0
2 *216:Y 3.75699e-05
3 *40:20 0.0010133
4 *40:10 0.00105087
5 *40:10 *54:23 1.9054e-05
6 *40:10 *54:38 7.06921e-05
7 *40:20 *220:A 0.000141352
8 *40:20 *221:B 0.000171927
9 *40:20 *41:10 6.07299e-05
10 *216:A2 *40:10 5.3304e-05
11 *218:B *40:20 7.84832e-05
12 *223:A2 *40:20 2.193e-05
13 *17:22 *40:20 6.33771e-05
14 *31:26 *40:20 5.44105e-05
15 *34:8 *40:20 0
16 *38:8 *40:20 2.58781e-05
*RES
1 *216:Y *40:10 39.1186 
2 *40:10 *40:20 35.6936 
3 *40:20 *221:A 23 
*END

*D_NET *41 0.00189165
*CONN
*I *222:B I *D sky130_fd_sc_hd__nand2_1
*I *218:A I *D sky130_fd_sc_hd__nor2_1
*I *217:Y O *D sky130_fd_sc_hd__nor2_1
*CAP
1 *222:B 0.00015374
2 *218:A 0.000296473
3 *217:Y 0.000284838
4 *41:10 0.000735051
5 *218:A *42:8 0.000162263
6 *222:B *55:31 3.67073e-05
7 *41:10 *220:A 6.17437e-06
8 *218:B *218:A 3.96108e-05
9 *38:8 *218:A 2.02217e-05
10 *38:8 *222:B 7.34938e-05
11 *38:8 *41:10 2.23467e-05
12 *40:20 *41:10 6.07299e-05
*RES
1 *217:Y *41:10 41.8011 
2 *41:10 *218:A 43.4375 
3 *41:10 *222:B 40.9725 
*END

*D_NET *42 0.00103997
*CONN
*I *220:A I *D sky130_fd_sc_hd__xnor2_1
*I *218:Y O *D sky130_fd_sc_hd__nor2_1
*CAP
1 *220:A 7.21031e-05
2 *218:Y 7.07763e-05
3 *42:8 0.000142879
4 *220:A *45:10 0.000234122
5 *218:A *42:8 0.000162263
6 *218:B *42:8 7.65052e-05
7 *223:A2 *220:A 4.80365e-05
8 *38:8 *42:8 8.57577e-05
9 *40:20 *220:A 0.000141352
10 *41:10 *220:A 6.17437e-06
*RES
1 *218:Y *42:8 40.2579 
2 *42:8 *220:A 41.0036 
*END

*D_NET *43 0.000879572
*CONN
*I *220:B I *D sky130_fd_sc_hd__xnor2_1
*I *219:X O *D sky130_fd_sc_hd__o31a_1
*CAP
1 *220:B 5.15126e-05
2 *219:X 0.000285524
3 *43:8 0.000337037
4 *220:B *45:10 0.000102093
5 *223:A2 *220:B 0.000103405
*RES
1 *219:X *43:8 42.7229 
2 *43:8 *220:B 40.0507 
*END

*D_NET *44 0.000477272
*CONN
*I *221:B I *D sky130_fd_sc_hd__xnor2_1
*I *220:Y O *D sky130_fd_sc_hd__xnor2_1
*CAP
1 *221:B 0.000124772
2 *220:Y 0.000124772
3 *223:A2 *221:B 5.58003e-05
4 *40:20 *221:B 0.000171927
*RES
1 *220:Y *221:B 48.5479 
*END

*D_NET *45 0.000978687
*CONN
*I *223:B1 I *D sky130_fd_sc_hd__o221a_1
*I *221:Y O *D sky130_fd_sc_hd__xnor2_1
*CAP
1 *223:B1 0
2 *221:Y 0.000290506
3 *45:10 0.000290506
4 *45:10 *223:B2 3.86731e-05
5 *220:A *45:10 0.000234122
6 *220:B *45:10 0.000102093
7 *223:A2 *45:10 2.27859e-05
*RES
1 *221:Y *45:10 29.38 
2 *45:10 *223:B1 23 
*END

*D_NET *46 0.000799997
*CONN
*I *223:C1 I *D sky130_fd_sc_hd__o221a_1
*I *222:Y O *D sky130_fd_sc_hd__nand2_1
*CAP
1 *223:C1 0
2 *222:Y 0.000322065
3 *46:10 0.000322065
4 *46:10 *48:53 0.000155867
*RES
1 *222:Y *46:10 42.9093 
2 *46:10 *223:C1 38 
*END

*D_NET *47 0.00233482
*CONN
*I *192:A I *D sky130_fd_sc_hd__nand2_1
*I *195:A I *D sky130_fd_sc_hd__or2b_1
*I *194:A1 I *D sky130_fd_sc_hd__o21a_1
*I *224:X O *D sky130_fd_sc_hd__buf_1
*CAP
1 *192:A 0.000183498
2 *195:A 0
3 *194:A1 0.000142583
4 *224:X 0.00026184
5 *47:19 0.000363157
6 *47:6 0.000584082
7 *192:A *192:B 0.000144494
8 *192:A *56:45 0.000157134
9 *194:A1 *194:A2 0.000106487
10 *194:A1 *49:10 9.08709e-06
11 *47:6 *49:10 9.96949e-05
12 *47:19 *194:A2 0.000190742
13 *47:19 *56:45 9.20193e-05
*RES
1 *224:X *47:6 27.9093 
2 *47:6 *194:A1 26.0243 
3 *47:6 *47:19 19.3707 
4 *47:19 *195:A 38 
5 *47:19 *192:A 42.3086 
*END

*D_NET *48 0.00582769
*CONN
*I *193:A0 I *D sky130_fd_sc_hd__mux2_1
*I *222:A I *D sky130_fd_sc_hd__nand2_1
*I *223:B2 I *D sky130_fd_sc_hd__o221a_1
*I *196:A I *D sky130_fd_sc_hd__or2b_1
*I *190:A I *D sky130_fd_sc_hd__inv_2
*I *225:X O *D sky130_fd_sc_hd__dlymetal6s2s_1
*CAP
1 *193:A0 3.65125e-05
2 *222:A 0
3 *223:B2 0.000125501
4 *196:A 0
5 *190:A 0
6 *225:X 0.000698872
7 *48:53 0.000424989
8 *48:36 0.000730957
9 *48:34 0.000548219
10 *48:18 0.000211077
11 *48:10 0.000289935
12 *48:8 0.00110897
13 *48:8 *196:B_N 1.21972e-05
14 *48:8 *219:A1 7.1262e-05
15 *48:10 *196:B_N 1.83327e-05
16 *48:10 *219:A1 7.53303e-06
17 *48:18 *219:A1 3.58877e-05
18 *48:34 *196:B_N 8.7816e-05
19 *48:53 *52:8 0.000140884
20 *193:A1 *193:A0 0.000100069
21 *193:A1 *48:36 0.000353978
22 *223:A1 *223:B2 5.56279e-05
23 *223:A1 *48:36 0.000100486
24 *223:A2 *223:B2 3.22051e-05
25 *18:12 *48:18 7.6774e-06
26 *19:8 *48:34 0
27 *20:10 *193:A0 4.21048e-05
28 *20:10 *48:36 0.000102389
29 *21:10 *48:34 0.00015192
30 *22:21 *48:18 0.000137744
31 *45:10 *223:B2 3.86731e-05
32 *46:10 *48:53 0.000155867
*RES
1 *225:X *48:8 32.57 
2 *48:8 *48:10 1.09786 
3 *48:10 *48:18 33.8321 
4 *48:18 *190:A 23 
5 *48:10 *196:A 23 
6 *48:8 *48:34 37.1879 
7 *48:34 *48:36 4.90929 
8 *48:36 *223:B2 25.5479 
9 *48:36 *48:53 38.5964 
10 *48:53 *222:A 23 
11 *48:34 *193:A0 24.0979 
*END

*D_NET *49 0.00179865
*CONN
*I *234:A I *D sky130_fd_sc_hd__buf_2
*I *194:X O *D sky130_fd_sc_hd__o21a_1
*CAP
1 *234:A 0
2 *194:X 0.000767519
3 *49:10 0.000767519
4 *49:10 *194:A2 0.000128096
5 Y[0] *49:10 2.67315e-05
6 *194:A1 *49:10 9.08709e-06
7 *47:6 *49:10 9.96949e-05
*RES
1 *194:X *49:10 49.1029 
2 *49:10 *234:A 38 
*END

*D_NET *50 0.00114257
*CONN
*I *235:A I *D sky130_fd_sc_hd__buf_2
*I *205:X O *D sky130_fd_sc_hd__o211a_1
*CAP
1 *235:A 0.000305886
2 *205:X 0.000122206
3 *50:8 0.000428092
4 *235:A *57:87 2.81066e-05
5 *50:8 *57:10 2.4867e-05
6 *50:8 *57:87 1.16814e-05
7 *27:10 *50:8 6.16577e-05
8 *28:8 *50:8 0.000160074
*RES
1 *205:X *50:8 40.9621 
2 *50:8 *235:A 43.3857 
*END

*D_NET *51 0.000953496
*CONN
*I *236:A I *D sky130_fd_sc_hd__clkbuf_4
*I *213:X O *D sky130_fd_sc_hd__o211a_1
*CAP
1 *236:A 4.23615e-05
2 *213:X 0.000434386
3 *51:8 0.000476748
*RES
1 *213:X *51:8 46.5964 
2 *51:8 *236:A 38.6214 
*END

*D_NET *52 0.000814166
*CONN
*I *237:A I *D sky130_fd_sc_hd__buf_2
*I *223:X O *D sky130_fd_sc_hd__o221a_1
*CAP
1 *237:A 0.000100129
2 *223:X 0.000236511
3 *52:8 0.000336641
4 *48:53 *52:8 0.000140884
*RES
1 *223:X *52:8 43.075 
2 *52:8 *237:A 39.5743 
*END

*D_NET *53 0.00167642
*CONN
*I *199:B1 I *D sky130_fd_sc_hd__o21a_1
*I *204:B1 I *D sky130_fd_sc_hd__a211o_1
*I *200:A I *D sky130_fd_sc_hd__or3_1
*I *226:X O *D sky130_fd_sc_hd__buf_1
*CAP
1 *199:B1 1.2087e-05
2 *204:B1 9.26431e-05
3 *200:A 0
4 *226:X 0.000213098
5 *53:17 0.000237585
6 *53:8 0.000345954
7 *204:B1 *204:A2 4.63278e-05
8 *204:B1 *60:38 1.8788e-05
9 *53:17 *204:A2 4.65096e-05
10 *199:A2 *53:17 6.57815e-06
11 *200:B *53:17 1.21972e-05
12 *200:C *53:17 9.66668e-05
13 *204:C1 *204:B1 9.77405e-05
14 *25:10 *204:B1 9.88259e-05
15 *25:10 *53:8 1.61385e-05
16 *25:10 *53:17 0.00031453
17 *26:10 *53:8 2.07484e-05
*RES
1 *226:X *53:8 26.9771 
2 *53:8 *200:A 23 
3 *53:8 *53:17 4.32929 
4 *53:17 *204:B1 25.5479 
5 *53:17 *199:B1 23.4971 
*END

*D_NET *54 0.00327561
*CONN
*I *213:A1 I *D sky130_fd_sc_hd__o211a_1
*I *212:A2 I *D sky130_fd_sc_hd__a211o_1
*I *215:B I *D sky130_fd_sc_hd__and2b_1
*I *209:A I *D sky130_fd_sc_hd__xnor2_1
*I *227:X O *D sky130_fd_sc_hd__buf_1
*CAP
1 *213:A1 0.000127974
2 *212:A2 0
3 *215:B 0
4 *209:A 0
5 *227:X 0.000429439
6 *54:44 0.000134649
7 *54:38 0.000506686
8 *54:23 0.000452641
9 *54:12 0.000208577
10 *54:10 0.000429439
11 *209:B *54:10 3.8696e-05
12 *213:A2 *213:A1 5.46749e-05
13 *215:A_N *54:23 9.77611e-05
14 *216:A2 *54:23 0.000234287
15 *216:A2 *54:38 0.000122035
16 *227:A *54:10 0
17 *17:35 *54:44 1.35764e-05
18 *31:8 *213:A1 0.000269856
19 *31:8 *54:38 1.5259e-05
20 *31:26 *54:44 2.24366e-06
21 *37:8 *54:44 4.80733e-05
22 *40:10 *54:23 1.9054e-05
23 *40:10 *54:38 7.06921e-05
*RES
1 *227:X *54:10 43.7379 
2 *54:10 *54:12 15 
3 *54:12 *209:A 23 
4 *54:12 *54:23 5.42714 
5 *54:23 *215:B 23 
6 *54:23 *54:38 5.34429 
7 *54:38 *54:44 32.2579 
8 *54:44 *212:A2 23 
9 *54:38 *213:A1 26.5007 
*END

*D_NET *55 0.00175367
*CONN
*I *217:B I *D sky130_fd_sc_hd__nor2_1
*I *214:B I *D sky130_fd_sc_hd__and2_1
*I *228:X O *D sky130_fd_sc_hd__clkbuf_1
*CAP
1 *217:B 0
2 *214:B 0
3 *228:X 0.000312014
4 *55:31 0.000300613
5 *55:10 0.000612627
6 *55:10 *59:8 0.000167113
7 *55:31 *59:12 5.56279e-05
8 *55:31 *59:20 0.000227598
9 *222:B *55:31 3.67073e-05
10 *228:A *55:10 1.83408e-05
11 *8:17 *55:10 2.30292e-05
*RES
1 *228:X *55:10 43.2614 
2 *55:10 *214:B 38 
3 *55:10 *55:31 36.2764 
4 *55:31 *217:B 38 
*END

*D_NET *56 0.00653774
*CONN
*I *219:A1 I *D sky130_fd_sc_hd__o31a_1
*I *192:B I *D sky130_fd_sc_hd__nand2_1
*I *195:B_N I *D sky130_fd_sc_hd__or2b_1
*I *194:A2 I *D sky130_fd_sc_hd__o21a_1
*I *198:A1 I *D sky130_fd_sc_hd__a21oi_1
*I *197:A I *D sky130_fd_sc_hd__and3_1
*I *207:A1 I *D sky130_fd_sc_hd__o21ai_1
*I *229:X O *D sky130_fd_sc_hd__clkbuf_2
*CAP
1 *219:A1 0.0005848
2 *192:B 0.000160148
3 *195:B_N 0.000130403
4 *194:A2 0.000180154
5 *198:A1 0
6 *197:A 0
7 *207:A1 0.000291141
8 *229:X 0.000317102
9 *56:45 0.00045354
10 *56:43 0.000413159
11 *56:41 0.000912039
12 *56:16 0.000468136
13 *56:8 0.00019291
14 *56:6 0.000550227
15 *219:A1 *196:B_N 9.88259e-05
16 *219:A1 *219:A3 1.59071e-05
17 *56:6 *198:B1 5.3304e-05
18 *56:6 *57:41 6.63793e-06
19 *56:8 *57:41 9.03364e-06
20 *56:16 *57:41 1.08287e-05
21 *56:41 *57:41 1.16551e-05
22 *192:A *192:B 0.000144494
23 *192:A *56:45 0.000157134
24 *194:A1 *194:A2 0.000106487
25 *197:C *56:16 3.79652e-05
26 *198:A2 *56:16 6.51951e-05
27 *198:A2 *56:41 5.47983e-06
28 *207:B1 *207:A1 7.17698e-05
29 *219:B1 *219:A1 0.000130985
30 *22:30 *207:A1 0.00016869
31 *22:30 *56:16 2.32787e-05
32 *23:10 *56:6 1.35999e-05
33 *23:10 *56:8 5.81185e-05
34 *23:10 *56:16 0.000102389
35 *24:8 *56:41 6.66613e-05
36 *47:19 *194:A2 0.000190742
37 *47:19 *56:45 9.20193e-05
38 *48:8 *219:A1 7.1262e-05
39 *48:10 *219:A1 7.53303e-06
40 *48:18 *219:A1 3.58877e-05
41 *49:10 *194:A2 0.000128096
*RES
1 *229:X *56:6 27.9093 
2 *56:6 *56:8 0.621429 
3 *56:8 *56:16 4.14286 
4 *56:16 *207:A1 28.4064 
5 *56:16 *197:A 23 
6 *56:8 *198:A1 23 
7 *56:6 *56:41 19.1636 
8 *56:41 *56:43 1.90571 
9 *56:43 *56:45 3.66643 
10 *56:45 *194:A2 43.1371 
11 *56:45 *195:B_N 40.0507 
12 *56:43 *192:B 41.0243 
13 *56:41 *219:A1 49.1236 
*END

*D_NET *57 0.0073193
*CONN
*I *205:A1 I *D sky130_fd_sc_hd__o211a_1
*I *198:B1 I *D sky130_fd_sc_hd__a21oi_1
*I *207:A2 I *D sky130_fd_sc_hd__o21ai_1
*I *219:A2 I *D sky130_fd_sc_hd__o31a_1