*SPEF "ieee 1481-1999"
*DESIGN "alu"
*DATE "13:14:40 Thursday July 10, 2025"
*VENDOR "The OpenROAD Project"
*PROGRAM "OpenROAD"
*VERSION "b16bda7e82721d10566ff7e2b68f1ff0be9f9e38"
*DESIGN_FLOW "NAME_SCOPE LOCAL" "PIN_CAP NONE"
*DIVIDER /
*DELIMITER :
*BUS_DELIMITER []
*T_UNIT 1 NS
*C_UNIT 1 PF
*R_UNIT 1 OHM
*L_UNIT 1 HENRY

*NAME_MAP
*1 A[0]
*2 A[1]
*3 A[2]
*4 A[3]
*5 B[0]
*6 B[1]
*7 B[2]
*8 B[3]
*9 SEL[0]
*10 SEL[1]
*13 Y[0]
*14 Y[1]
*15 Y[2]
*16 Y[3]
*17 _00_
*18 _01_
*19 _02_
*20 _03_
*21 _04_
*22 _05_
*23 _06_
*24 _07_
*25 _08_
*26 _09_
*27 _10_
*28 _11_
*29 _12_
*30 _13_
*31 _14_
*32 _15_
*33 _16_
*34 _17_
*35 _18_
*36 _19_
*37 _20_
*38 _21_
*39 _22_
*40 _23_
*41 _24_
*42 _25_
*43 _26_
*44 _27_
*45 _28_
*46 _29_
*47 net1
*48 net10
*49 net11
*50 net12
*51 net13
*52 net14
*53 net2
*54 net3
*55 net4
*56 net5
*57 net6
*58 net7
*59 net8
*60 net9
*61 FILLER_0_0_15
*62 FILLER_0_0_20
*63 FILLER_0_0_27
*64 FILLER_0_0_29
*65 FILLER_0_0_3
*66 FILLER_0_0_35
*67 FILLER_0_0_47
*68 FILLER_0_0_55
*69 FILLER_0_0_57
*70 FILLER_0_0_65
*71 FILLER_0_10_15
*72 FILLER_0_10_27
*73 FILLER_0_10_29
*74 FILLER_0_10_3
*75 FILLER_0_10_41
*76 FILLER_0_10_53
*77 FILLER_0_10_57
*78 FILLER_0_11_15
*79 FILLER_0_11_27
*80 FILLER_0_11_29
*81 FILLER_0_11_3
*82 FILLER_0_11_37
*83 FILLER_0_11_49
*84 FILLER_0_11_55
*85 FILLER_0_11_57
*86 FILLER_0_11_65
*87 FILLER_0_1_15
*88 FILLER_0_1_24
*89 FILLER_0_1_3
*90 FILLER_0_1_36
*91 FILLER_0_1_44
*92 FILLER_0_1_51
*93 FILLER_0_1_55
*94 FILLER_0_1_57
*95 FILLER_0_2_3
*96 FILLER_0_2_38
*97 FILLER_0_2_59
*98 FILLER_0_2_63
*99 FILLER_0_3_15
*100 FILLER_0_3_20
*101 FILLER_0_3_3
*102 FILLER_0_3_32
*103 FILLER_0_3_44
*104 FILLER_0_3_48
*105 FILLER_0_3_52
*106 FILLER_0_3_57
*107 FILLER_0_3_65
*108 FILLER_0_4_15
*109 FILLER_0_4_27
*110 FILLER_0_4_29
*111 FILLER_0_4_3
*112 FILLER_0_4_37
*113 FILLER_0_4_46
*114 FILLER_0_5_15
*115 FILLER_0_5_27
*116 FILLER_0_5_3
*117 FILLER_0_5_33
*118 FILLER_0_5_38
*119 FILLER_0_5_42
*120 FILLER_0_5_46
*121 FILLER_0_5_57
*122 FILLER_0_5_63
*123 FILLER_0_6_11
*124 FILLER_0_6_19
*125 FILLER_0_6_27
*126 FILLER_0_6_29
*127 FILLER_0_6_3
*128 FILLER_0_6_41
*129 FILLER_0_6_53
*130 FILLER_0_7_18
*131 FILLER_0_7_22
*132 FILLER_0_7_30
*133 FILLER_0_7_36
*134 FILLER_0_7_55
*135 FILLER_0_7_6
*136 FILLER_0_7_62
*137 FILLER_0_8_27
*138 FILLER_0_8_3
*139 FILLER_0_8_37
*140 FILLER_0_8_63
*141 FILLER_0_8_67
*142 FILLER_0_8_9
*143 FILLER_0_9_12
*144 FILLER_0_9_20
*145 FILLER_0_9_27
*146 FILLER_0_9_39
*147 FILLER_0_9_47
*148 FILLER_0_9_55
*149 FILLER_0_9_57
*150 FILLER_0_9_6
*151 FILLER_0_9_63
*152 PHY_EDGE_ROW_0_Left_12
*153 PHY_EDGE_ROW_0_Right_0
*154 PHY_EDGE_ROW_10_Left_22
*155 PHY_EDGE_ROW_10_Right_10
*156 PHY_EDGE_ROW_11_Left_23
*157 PHY_EDGE_ROW_11_Right_11
*158 PHY_EDGE_ROW_1_Left_13
*159 PHY_EDGE_ROW_1_Right_1
*160 PHY_EDGE_ROW_2_Left_14
*161 PHY_EDGE_ROW_2_Right_2
*162 PHY_EDGE_ROW_3_Left_15
*163 PHY_EDGE_ROW_3_Right_3
*164 PHY_EDGE_ROW_4_Left_16
*165 PHY_EDGE_ROW_4_Right_4
*166 PHY_EDGE_ROW_5_Left_17
*167 PHY_EDGE_ROW_5_Right_5
*168 PHY_EDGE_ROW_6_Left_18
*169 PHY_EDGE_ROW_6_Right_6
*170 PHY_EDGE_ROW_7_Left_19
*171 PHY_EDGE_ROW_7_Right_7
*172 PHY_EDGE_ROW_8_Left_20
*173 PHY_EDGE_ROW_8_Right_8
*174 PHY_EDGE_ROW_9_Left_21
*175 PHY_EDGE_ROW_9_Right_9
*176 TAP_TAPCELL_ROW_0_24
*177 TAP_TAPCELL_ROW_0_25
*178 TAP_TAPCELL_ROW_10_35
*179 TAP_TAPCELL_ROW_11_36
*180 TAP_TAPCELL_ROW_11_37
*181 TAP_TAPCELL_ROW_1_26
*182 TAP_TAPCELL_ROW_2_27
*183 TAP_TAPCELL_ROW_3_28
*184 TAP_TAPCELL_ROW_4_29
*185 TAP_TAPCELL_ROW_5_30
*186 TAP_TAPCELL_ROW_6_31
*187 TAP_TAPCELL_ROW_7_32
*188 TAP_TAPCELL_ROW_8_33
*189 TAP_TAPCELL_ROW_9_34
*190 _30_
*191 _31_
*192 _32_
*193 _33_
*194 _34_
*195 _35_
*196 _36_
*197 _37_
*198 _38_
*199 _39_
*200 _40_
*201 _41_
*202 _42_
*203 _43_
*204 _44_
*205 _45_
*206 _46_
*207 _47_
*208 _48_
*209 _49_
*210 _50_
*211 _51_
*212 _52_
*213 _53_
*214 _54_
*215 _55_
*216 _56_
*217 _57_
*218 _58_
*219 _59_
*220 _60_
*221 _61_
*222 _62_
*223 _63_
*224 input1
*225 input10
*226 input2
*227 input3
*228 input4
*229 input5
*230 input6
*231 input7
*232 input8
*233 input9
*234 output11
*235 output12
*236 output13
*237 output14

*PORTS
A[0] I
A[1] I
A[2] I
A[3] I
B[0] I
B[1] I
B[2] I
B[3] I
SEL[0] I
SEL[1] I
Y[0] O
Y[1] O
Y[2] O
Y[3] O

*D_NET *1 0.000743686
*CONN
*P A[0] I
*I *224:A I *D sky130_fd_sc_hd__buf_1
*CAP
1 A[0] 0.000348056
2 *224:A 0.000348056
3 *224:A Y[0] 4.75741e-05
*RES
1 A[0] *224:A 19.1056 
*END

*D_NET *2 0.000678096
*CONN
*P A[1] I
*I *226:A I *D sky130_fd_sc_hd__buf_1
*CAP
1 A[1] 0.000295392
2 *226:A 0.000295392
3 *226:A Y[1] 4.82636e-05
4 *226:A *229:A 0
5 *226:A *233:A 3.90474e-05
*RES
1 A[1] *226:A 18.4985 
*END

*D_NET *3 0.000694048
*CONN
*P A[2] I
*I *227:A I *D sky130_fd_sc_hd__buf_1
*CAP
1 A[2] 0.00033264
2 *227:A 0.00033264
3 *227:A *231:A 2.87684e-05
4 *227:A *54:12 0
*RES
1 A[2] *227:A 20.2479 
*END

*D_NET *4 0.000944519
*CONN
*P A[3] I
*I *228:A I *D sky130_fd_sc_hd__clkbuf_1
*CAP
1 A[3] 0.000463103
2 *228:A 0.000463103
3 *228:A Y[3] 0
4 *228:A *232:A 0
5 *228:A *55:10 1.83136e-05
*RES
1 A[3] *228:A 22.6571 
*END

*D_NET *5 0.000967885
*CONN
*P B[0] I
*I *229:A I *D sky130_fd_sc_hd__clkbuf_2
*CAP
1 B[0] 0.000445842
2 *229:A 0.000445842
3 *229:A Y[0] 0
4 *229:A *225:A 3.71543e-05
5 *229:A *233:A 3.90474e-05
6 *226:A *229:A 0
*RES
1 B[0] *229:A 19.7848 
*END

*D_NET *6 0.000672585
*CONN
*P B[1] I
*I *230:A I *D sky130_fd_sc_hd__dlymetal6s2s_1
*CAP
1 B[1] 0.000316769
2 *230:A 0.000316769
3 *230:A Y[1] 3.90474e-05
*RES
1 B[1] *230:A 21.2274 
*END

*D_NET *7 0.000572612
*CONN
*P B[2] I
*I *231:A I *D sky130_fd_sc_hd__buf_1
*CAP
1 B[2] 0.000271922
2 *231:A 0.000271922
3 *227:A *231:A 2.87684e-05
*RES
1 B[2] *231:A 20.4803 
*END

*D_NET *8 0.00128341
*CONN
*P B[3] I
*I *232:A I *D sky130_fd_sc_hd__clkbuf_1
*CAP
1 B[3] 0.000630333
2 *232:A 0.000630333
3 *232:A *55:10 2.27416e-05
4 *228:A *232:A 0
*RES
1 B[3] *232:A 26.8357 
*END

*D_NET *9 0.000617498
*CONN
*P SEL[0] I
*I *233:A I *D sky130_fd_sc_hd__buf_1
*CAP
1 SEL[0] 0.000269702
2 *233:A 0.000269702
3 *226:A *233:A 3.90474e-05
4 *229:A *233:A 3.90474e-05
*RES
1 SEL[0] *233:A 20.6203 
*END

*D_NET *10 0.000716263
*CONN
*P SEL[1] I
*I *225:A I *D sky130_fd_sc_hd__dlymetal6s2s_1
*CAP
1 SEL[1] 0.000320031
2 *225:A 0.000320031
3 *225:A Y[0] 3.90474e-05
4 *229:A *225:A 3.71543e-05
*RES
1 SEL[1] *225:A 21.8346 
*END

*D_NET *13 0.000786124
*CONN
*P Y[0] O
*I *234:X O *D sky130_fd_sc_hd__buf_2
*CAP
1 Y[0] 0.000336871
2 *234:X 0.000336871
3 Y[0] *234:A 2.57594e-05
4 *224:A Y[0] 4.75741e-05
5 *225:A Y[0] 3.90474e-05
6 *229:A Y[0] 0
*RES
1 *234:X Y[0] 18.5706 
*END

*D_NET *14 0.000877214
*CONN
*P Y[1] O
*I *235:X O *D sky130_fd_sc_hd__buf_2
*CAP
1 Y[1] 0.000394951
2 *235:X 0.000394951
3 *226:A Y[1] 4.82636e-05
4 *230:A Y[1] 3.90474e-05
*RES
1 *235:X Y[1] 19.4813 
*END

*D_NET *15 0.000838391
*CONN
*P Y[2] O
*I *236:X O *D sky130_fd_sc_hd__clkbuf_4
*CAP
1 Y[2] 0.000419196
2 *236:X 0.000419196
*RES
1 *236:X Y[2] 22.1393 
*END

*D_NET *16 0.000881042
*CONN
*P Y[3] O
*I *237:X O *D sky130_fd_sc_hd__buf_2
*CAP
1 Y[3] 0.000440521
2 *237:X 0.000440521
3 *228:A Y[3] 0
*RES
1 *237:X Y[3] 21.6393 
*END

*D_NET *17 0.0060513
*CONN
*I *203:A I *D sky130_fd_sc_hd__nand2_1
*I *204:C1 I *D sky130_fd_sc_hd__a211o_1
*I *191:A I *D sky130_fd_sc_hd__or2_1
*I *211:A I *D sky130_fd_sc_hd__nand2_1
*I *212:C1 I *D sky130_fd_sc_hd__a211o_1
*I *190:Y O *D sky130_fd_sc_hd__inv_2
*CAP
1 *203:A 0.000764728
2 *204:C1 2.26156e-05
3 *191:A 3.64069e-05
4 *211:A 0.000349439
5 *212:C1 0.000193208
6 *190:Y 0.000167285
7 *17:53 0.00106094
8 *17:14 0.00071713
9 *17:12 0.000238753
10 *17:10 0.000468748
11 *203:A *203:B 5.33005e-05
12 *203:A *204:A2 4.19624e-06
13 *203:A *205:B1 6.05161e-06
14 *203:A *21:10 5.01649e-06
15 *203:A *26:14 0.000121842
16 *203:A *57:35 0
17 *204:C1 *204:A2 9.66977e-05
18 *204:C1 *204:B1 9.66977e-05
19 *211:A *212:A2 1.42165e-05
20 *211:A *213:B1 0.000214654
21 *211:A *213:C1 0.000122765
22 *212:C1 *221:A 5.66943e-05
23 *212:C1 *58:8 5.49544e-05
24 *212:C1 *58:21 0.000258693
25 *17:10 *18:12 0.000139142
26 *17:10 *18:28 1.46689e-05
27 *17:12 *212:A1 1.84776e-05
28 *17:14 *212:A1 2.69219e-05
29 *17:14 *18:8 5.33005e-05
30 *17:14 *58:21 0.000313804
31 *17:53 *204:A2 0.000274213
32 *17:53 *212:A1 1.84865e-05
33 *17:53 *21:10 2.41972e-05
34 *17:53 *60:38 4.30564e-05
*RES
1 *190:Y *17:10 22.0679 
2 *17:10 *17:12 0.535714 
3 *17:12 *17:14 3.82143 
4 *17:14 *212:C1 22.0321 
5 *17:14 *211:A 25.6571 
6 *17:12 *191:A 10.0321 
7 *17:10 *17:53 9.46429 
8 *17:53 *204:C1 14.7464 
9 *17:53 *203:A 24.3704 
*END

*D_NET *18 0.00495895
*CONN
*I *213:A2 I *D sky130_fd_sc_hd__o211a_1
*I *205:A2 I *D sky130_fd_sc_hd__o211a_1
*I *193:A1 I *D sky130_fd_sc_hd__mux2_1
*I *223:A1 I *D sky130_fd_sc_hd__o221a_1
*I *191:X O *D sky130_fd_sc_hd__or2_1
*CAP
1 *213:A2 0.000151585
2 *205:A2 0.000552458
3 *193:A1 0.000173819
4 *223:A1 5.46025e-05
5 *191:X 4.36033e-05
6 *18:28 0.000889871
7 *18:12 0.000740527
8 *18:8 0.000741537
9 *193:A1 *193:A0 9.83442e-05
10 *193:A1 *21:10 2.07878e-05
11 *193:A1 *48:36 0.000345734
12 *205:A2 *202:A 1.90936e-05
13 *205:A2 *205:A1 9.54798e-06
14 *213:A2 *213:A1 5.12928e-05
15 *213:A2 *31:8 0.000108996
16 *223:A1 *223:B2 5.49489e-05
17 *223:A1 *48:36 9.84729e-05
18 *18:12 *190:A 8.08608e-06
19 *18:12 *219:A3 0.000333413
20 *18:12 *22:21 6.13812e-05
21 *18:12 *58:21 0.00014925
22 *18:28 *205:C1 0
23 *18:28 *58:21 4.44838e-05
24 *17:10 *18:12 0.000139142
25 *17:10 *18:28 1.46689e-05
26 *17:14 *18:8 5.33005e-05
*RES
1 *191:X *18:8 14.3357 
2 *18:8 *18:12 16.1607 
3 *18:12 *223:A1 10.6571 
4 *18:12 *193:A1 13.9429 
5 *18:8 *18:28 3.00893 
6 *18:28 *205:A2 21.7365 
7 *18:28 *213:A2 17.6482 
*END

*D_NET *19 0.000213447
*CONN
*I *193:S I *D sky130_fd_sc_hd__mux2_1
*I *192:Y O *D sky130_fd_sc_hd__nand2_1
*CAP
1 *193:S 8.85552e-05
2 *192:Y 8.85552e-05
3 *193:S *21:10 3.6337e-05
4 *193:S *48:34 0
*RES
1 *192:Y *193:S 29.2429 
*END

*D_NET *20 0.000528514
*CONN
*I *194:B1 I *D sky130_fd_sc_hd__o21a_1
*I *193:X O *D sky130_fd_sc_hd__mux2_1
*CAP
1 *194:B1 0.000193393
2 *193:X 0.000193393
3 *194:B1 *193:A0 4.17433e-05
4 *194:B1 *48:36 9.99853e-05
*RES
1 *193:X *194:B1 30.6 
*END

*D_NET *21 0.00340733
*CONN
*I *202:A I *D sky130_fd_sc_hd__xnor2_1
*I *206:A1 I *D sky130_fd_sc_hd__a21o_1
*I *195:X O *D sky130_fd_sc_hd__or2b_1
*CAP
1 *202:A 0.000245017
2 *206:A1 0.000155337
3 *195:X 0.00089495
4 *21:10 0.0012953
5 *202:A *202:B 1.69252e-05
6 *202:A *205:A1 6.85026e-05
7 *202:A *205:C1 2.20303e-05
8 *202:A *206:A2 1.19197e-05
9 *202:A *57:12 0
10 *206:A1 *205:B1 1.32056e-05
11 *206:A1 *206:B1 4.40153e-05
12 *21:10 *196:B_N 0.000279826
13 *21:10 *205:C1 3.42301e-05
14 *21:10 *48:34 0.000147204
15 *21:10 *60:29 7.34334e-05
16 *193:A1 *21:10 2.07878e-05
17 *193:S *21:10 3.6337e-05
18 *203:A *21:10 5.01649e-06
19 *205:A2 *202:A 1.90936e-05
20 *17:53 *21:10 2.41972e-05
*RES
1 *195:X *21:10 29.1571 
2 *21:10 *206:A1 15.6929 
3 *21:10 *202:A 18.2107 
*END

*D_NET *22 0.00238186
*CONN
*I *198:A2 I *D sky130_fd_sc_hd__a21oi_1
*I *197:C I *D sky130_fd_sc_hd__and3_1
*I *207:B1 I *D sky130_fd_sc_hd__o21ai_1
*I *219:B1 I *D sky130_fd_sc_hd__o31a_1
*I *196:X O *D sky130_fd_sc_hd__or2b_1
*CAP
1 *198:A2 3.76329e-05
2 *197:C 2.88982e-05
3 *207:B1 7.31854e-05
4 *219:B1 0.000127412
5 *196:X 0
6 *22:30 0.000162457
7 *22:21 0.000226036
8 *22:4 0.000184337
9 *197:C *56:16 3.63493e-05
10 *198:A2 *56:16 6.28459e-05
11 *198:A2 *56:41 5.38444e-06
12 *198:A2 *57:41 7.09928e-05
13 *207:B1 *207:A1 6.96806e-05
14 *207:B1 *208:B 3.69013e-05
15 *207:B1 *219:A2 0.000100037
16 *207:B1 *57:50 0.000180202
17 *219:B1 *219:A1 0.00012585
18 *219:B1 *219:A3 0.000100115
19 *22:21 *190:A 0.000124012
20 *22:30 *207:A1 0.000162847
21 *22:30 *56:16 2.32275e-05
22 *22:30 *57:50 0.000382073
23 *18:12 *22:21 6.13812e-05
*RES
1 *196:X *22:4 9.3 
2 *22:4 *219:B1 12.6393 
3 *22:4 *22:21 10.6429 
4 *22:21 *207:B1 11.8893 
5 *22:21 *22:30 3.82143 
6 *22:30 *197:C 10.2286 
7 *22:30 *198:A2 11.0857 
*END

*D_NET *23 0.00139745
*CONN
*I *199:A1 I *D sky130_fd_sc_hd__o21a_1
*I *200:B I *D sky130_fd_sc_hd__or3_1
*I *197:X O *D sky130_fd_sc_hd__and3_1
*CAP
1 *199:A1 0
2 *200:B 0.00011071
3 *197:X 0.000286182
4 *23:12 0.000396892
5 *200:B *199:A2 5.33005e-05
6 *200:B *200:C 4.84159e-05
7 *200:B *53:17 1.21258e-05
8 *23:12 *200:C 4.60131e-05
9 *23:12 *204:A2 9.11048e-06
10 *23:12 *24:8 0.000264841
11 *23:12 *56:6 1.32293e-05
12 *23:12 *56:8 5.66472e-05
13 *23:12 *56:16 9.99853e-05
*RES
1 *197:X *23:12 23.7286 
2 *23:12 *200:B 11.5143 
3 *23:12 *199:A1 9.3 
*END

*D_NET *24 0.00153642
*CONN
*I *200:C I *D sky130_fd_sc_hd__or3_1
*I *199:A2 I *D sky130_fd_sc_hd__o21a_1
*I *198:Y O *D sky130_fd_sc_hd__a21oi_1
*CAP
1 *200:C 5.88244e-05
2 *199:A2 7.63334e-05
3 *198:Y 0.000118406
4 *24:8 0.000253564
5 *199:A2 *204:A2 7.20217e-06
6 *199:A2 *53:17 6.8377e-06
7 *200:C *204:A2 1.08528e-05
8 *200:C *53:17 9.58689e-05
9 *200:C *57:35 7.71611e-05
10 *24:8 *56:41 5.90911e-05
11 *24:8 *57:35 0.000302288
12 *24:8 *57:41 5.74242e-05
13 *200:B *199:A2 5.33005e-05
14 *200:B *200:C 4.84159e-05
15 *23:12 *200:C 4.60131e-05
16 *23:12 *24:8 0.000264841
*RES
1 *198:Y *24:8 18.4786 
2 *24:8 *199:A2 14.7464 
3 *24:8 *200:C 15.7821 
*END

*D_NET *25 0.00270044
*CONN
*I *206:B1 I *D sky130_fd_sc_hd__a21o_1
*I *201:A_N I *D sky130_fd_sc_hd__and2b_1
*I *199:X O *D sky130_fd_sc_hd__o21a_1
*CAP
1 *206:B1 0.000272213
2 *201:A_N 0
3 *199:X 0.000369073
4 *25:12 0.000641286
5 *206:B1 *203:B 0.000231466
6 *206:B1 *205:B1 0.000283162
7 *206:B1 *206:A2 0.000330723
8 *25:12 *204:B1 9.74665e-05
9 *25:12 *26:14 9.96553e-05
10 *25:12 *53:8 1.62025e-05
11 *25:12 *53:17 0.000309577
12 *25:12 *57:35 5.60463e-06
13 *206:A1 *206:B1 4.40153e-05
*RES
1 *199:X *25:12 23.8714 
2 *25:12 *201:A_N 9.3 
3 *25:12 *206:B1 17.8179 
*END

*D_NET *26 0.00195613
*CONN
*I *201:B I *D sky130_fd_sc_hd__and2b_1
*I *206:A2 I *D sky130_fd_sc_hd__a21o_1
*I *200:X O *D sky130_fd_sc_hd__or3_1
*CAP
1 *201:B 0
2 *206:A2 0.000244938
3 *200:X 0.00023227
4 *26:14 0.000477207
5 *206:A2 *202:B 0.000139202
6 *206:A2 *203:B 9.58689e-05
7 *206:A2 *205:C1 9.54798e-06
8 *26:14 *203:B 0.000172173
9 *26:14 *53:8 2.07878e-05
10 *202:A *206:A2 1.19197e-05
11 *203:A *26:14 0.000121842
12 *206:B1 *206:A2 0.000330723
13 *25:12 *26:14 9.96553e-05
*RES
1 *200:X *26:14 22.8536 
2 *26:14 *206:A2 23.675 
3 *26:14 *201:B 9.3 
*END

*D_NET *27 0.000608948
*CONN
*I *202:B I *D sky130_fd_sc_hd__xnor2_1
*I *201:X O *D sky130_fd_sc_hd__and2b_1
*CAP
1 *202:B 0.000158197
2 *201:X 0.000158197
3 *202:B *205:A1 7.6997e-05
4 *202:B *235:A 5.94294e-05
5 *202:A *202:B 1.69252e-05
6 *206:A2 *202:B 0.000139202
*RES
1 *201:X *202:B 30.6 
*END

*D_NET *28 0.00120775
*CONN
*I *203:B I *D sky130_fd_sc_hd__nand2_1
*I *202:Y O *D sky130_fd_sc_hd__xnor2_1
*CAP
1 *203:B 0.000178739
2 *202:Y 0.000178739
3 *203:B *205:B1 8.43535e-06
4 *203:B *235:A 0.00014489
5 *203:B *57:10 2.37713e-05
6 *203:B *57:12 0.000120368
7 *203:A *203:B 5.33005e-05
8 *206:A2 *203:B 9.58689e-05
9 *206:B1 *203:B 0.000231466
10 *26:14 *203:B 0.000172173
*RES
1 *202:Y *203:B 33.3857 
*END

*D_NET *29 0.00125126
*CONN
*I *205:B1 I *D sky130_fd_sc_hd__o211a_1
*I *203:Y O *D sky130_fd_sc_hd__nand2_1
*CAP
1 *205:B1 0.000470201
2 *203:Y 0.000470201
3 *203:A *205:B1 6.05161e-06
4 *203:B *205:B1 8.43535e-06
5 *206:A1 *205:B1 1.32056e-05
6 *206:B1 *205:B1 0.000283162
*RES
1 *203:Y *205:B1 25.5821 
*END

*D_NET *30 0.000661655
*CONN
*I *205:C1 I *D sky130_fd_sc_hd__o211a_1
*I *204:X O *D sky130_fd_sc_hd__a211o_1
*CAP
1 *205:C1 0.000215636
2 *204:X 0.000215636
3 *205:C1 *60:29 2.12005e-05
4 *205:C1 *60:38 0.000143375
5 *202:A *205:C1 2.20303e-05
6 *206:A2 *205:C1 9.54798e-06
7 *18:28 *205:C1 0
8 *21:10 *205:C1 3.42301e-05
*RES
1 *204:X *205:C1 31.0107 
*END

*D_NET *31 0.00273389
*CONN
*I *216:A1 I *D sky130_fd_sc_hd__a21oi_1
*I *210:A I *D sky130_fd_sc_hd__xnor2_1
*I *206:X O *D sky130_fd_sc_hd__a21o_1
*CAP
1 *216:A1 0
2 *210:A 0.000506987
3 *206:X 0.000494304
4 *31:8 0.00100129
5 *210:A *211:B 0.000192516
6 *210:A *212:A2 2.38651e-06
7 *210:A *216:A2 5.49544e-05
8 *210:A *221:A 4.96514e-05
9 *31:8 *213:A1 0.000266165
10 *31:8 *216:A2 2.36643e-05
11 *31:8 *216:B1 1.78251e-05
12 *31:8 *54:38 1.51488e-05
13 *213:A2 *31:8 0.000108996
*RES
1 *206:X *31:8 16.0143 
2 *31:8 *210:A 26.925 
3 *31:8 *216:A1 9.3 
*END

*D_NET *32 0.00195729
*CONN
*I *208:B I *D sky130_fd_sc_hd__xnor2_1
*I *207:Y O *D sky130_fd_sc_hd__o21ai_1
*CAP
1 *208:B 0.000469699
2 *207:Y 0.000469699
3 *208:B *208:A 0.000833996
4 *208:B *219:A3 0.000124749
5 *208:B *58:21 2.22419e-05
6 *207:B1 *208:B 3.69013e-05
*RES
1 *207:Y *208:B 38.4214 
*END

*D_NET *33 0.0011768
*CONN
*I *209:B I *D sky130_fd_sc_hd__xnor2_1
*I *215:A_N I *D sky130_fd_sc_hd__and2b_1
*I *208:Y O *D sky130_fd_sc_hd__xnor2_1
*CAP
1 *209:B 3.38471e-05
2 *215:A_N 0.000150749
3 *208:Y 0.0003123
4 *33:10 0.000496897
5 *209:B *54:12 3.43995e-05
6 *215:A_N *216:A2 5.49544e-05
7 *215:A_N *54:23 9.36522e-05
*RES
1 *208:Y *33:10 18.5143 
2 *33:10 *215:A_N 16.3893 
3 *33:10 *209:B 14.5321 
*END

*D_NET *34 0.00123573
*CONN
*I *210:B I *D sky130_fd_sc_hd__xnor2_1
*I *216:A2 I *D sky130_fd_sc_hd__a21oi_1
*I *209:Y O *D sky130_fd_sc_hd__xnor2_1
*CAP
1 *210:B 0.000146884
2 *216:A2 0.000137884
3 *209:Y 5.11863e-05
4 *34:8 0.000335954
5 *216:A2 *216:B1 2.85321e-05
6 *216:A2 *221:A 5.33005e-05
7 *216:A2 *54:23 0.000228799
8 *216:A2 *54:38 0.000119614
9 *34:8 *221:A 0
10 *210:A *216:A2 5.49544e-05
11 *215:A_N *216:A2 5.49544e-05
12 *31:8 *216:A2 2.36643e-05
*RES
1 *209:Y *34:8 14.5321 
2 *34:8 *216:A2 18.0321 
3 *34:8 *210:B 16.3536 
*END

*D_NET *35 0.000445295
*CONN
*I *211:B I *D sky130_fd_sc_hd__nand2_1
*I *210:Y O *D sky130_fd_sc_hd__xnor2_1
*CAP
1 *211:B 0.00012639
2 *210:Y 0.00012639
3 *210:A *211:B 0.000192516
*RES
1 *210:Y *211:B 21.5107 
*END

*D_NET *36 0.000804882
*CONN
*I *213:B1 I *D sky130_fd_sc_hd__o211a_1
*I *211:Y O *D sky130_fd_sc_hd__nand2_1
*CAP
1 *213:B1 0.000295114
2 *211:Y 0.000295114
3 *211:A *213:B1 0.000214654
*RES
1 *211:Y *213:B1 32.1357 
*END

*D_NET *37 0.000305103
*CONN
*I *213:C1 I *D sky130_fd_sc_hd__o211a_1
*I *212:X O *D sky130_fd_sc_hd__a211o_1
*CAP
1 *213:C1 6.79887e-05
2 *212:X 6.79887e-05
3 *213:C1 *212:A2 4.6361e-05
4 *211:A *213:C1 0.000122765
*RES
1 *212:X *213:C1 29.2429 
*END

*D_NET *38 0.00195625
*CONN
*I *218:B I *D sky130_fd_sc_hd__nor2_1
*I *223:A2 I *D sky130_fd_sc_hd__o221a_1
*I *214:X O *D sky130_fd_sc_hd__and2_1
*CAP
1 *218:B 9.44642e-05
2 *223:A2 0.000418207
3 *214:X 0.000130752
4 *38:8 0.000643424
5 *218:B *218:A 3.8206e-05
6 *218:B *220:A 6.88475e-05
7 *218:B *221:A 7.5802e-05
8 *223:A2 *220:A 4.8172e-05
9 *223:A2 *220:B 9.93955e-05
10 *223:A2 *221:A 2.12647e-05
11 *223:A2 *221:B 5.50052e-05
12 *223:A2 *223:B1 2.32884e-05
13 *223:A2 *223:B2 3.08664e-05
14 *38:8 *218:A 1.9516e-05
15 *38:8 *220:A 7.74135e-05
16 *38:8 *221:A 2.50593e-05
17 *38:8 *222:B 6.62859e-05
18 *38:8 *41:10 2.02794e-05
*RES
1 *214:X *38:8 16.3536 
2 *38:8 *223:A2 20.1214 
3 *38:8 *218:B 16.2821 
*END

*D_NET *39 0.000165089
*CONN
*I *216:B1 I *D sky130_fd_sc_hd__a21oi_1
*I *215:X O *D sky130_fd_sc_hd__and2b_1
*CAP
1 *216:B1 5.93657e-05
2 *215:X 5.93657e-05
3 *216:A2 *216:B1 2.85321e-05
4 *31:8 *216:B1 1.78251e-05
*RES
1 *215:X *216:B1 19.5643 
*END

*D_NET *40 0.00259271
*CONN
*I *221:A I *D sky130_fd_sc_hd__xnor2_1
*I *216:Y O *D sky130_fd_sc_hd__a21oi_1
*CAP
1 *221:A 0.000928995
2 *216:Y 0.000928995
3 *221:A *220:A 0.000139337
4 *221:A *221:B 0.000169297
5 *221:A *41:10 5.91026e-05
6 *221:A *54:23 1.87331e-05
7 *221:A *54:38 6.64739e-05
8 *210:A *221:A 4.96514e-05
9 *212:C1 *221:A 5.66943e-05
10 *216:A2 *221:A 5.33005e-05
11 *218:B *221:A 7.5802e-05
12 *223:A2 *221:A 2.12647e-05
13 *34:8 *221:A 0
14 *38:8 *221:A 2.50593e-05
*RES
1 *216:Y *221:A 46.4036 
*END

*D_NET *41 0.00168342
*CONN
*I *222:B I *D sky130_fd_sc_hd__nand2_1
*I *218:A I *D sky130_fd_sc_hd__nor2_1
*I *217:Y O *D sky130_fd_sc_hd__nor2_1
*CAP
1 *222:B 0.00013627
2 *218:A 0.000248146
3 *217:Y 0.000262605
4 *41:10 0.000647021
5 *218:A *220:A 0.000146261
6 *222:B *217:B 3.36782e-05
7 *41:10 *220:A 6.05161e-06
8 *218:B *218:A 3.8206e-05
9 *221:A *41:10 5.91026e-05
10 *38:8 *218:A 1.9516e-05
11 *38:8 *222:B 6.62859e-05
12 *38:8 *41:10 2.02794e-05
*RES
1 *217:Y *41:10 17.0768 
2 *41:10 *218:A 18.4875 
3 *41:10 *222:B 16.3625 
*END

*D_NET *42 0.000942191
*CONN
*I *220:A I *D sky130_fd_sc_hd__xnor2_1
*I *218:Y O *D sky130_fd_sc_hd__nor2_1
*CAP
1 *220:A 0.000113681
2 *218:Y 0.000113681
3 *220:A *223:B1 0.000228748
4 *218:A *220:A 0.000146261
5 *218:B *220:A 6.88475e-05
6 *221:A *220:A 0.000139337
7 *223:A2 *220:A 4.8172e-05
8 *38:8 *220:A 7.74135e-05
9 *41:10 *220:A 6.05161e-06
*RES
1 *218:Y *220:A 32.1357 
*END

*D_NET *43 0.000797985
*CONN
*I *220:B I *D sky130_fd_sc_hd__xnor2_1
*I *219:X O *D sky130_fd_sc_hd__o31a_1
*CAP
1 *220:B 0.000300189
2 *219:X 0.000300189
3 *220:B *223:B1 9.82116e-05
4 *223:A2 *220:B 9.93955e-05
*RES
1 *219:X *220:B 33.4393 
*END

*D_NET *44 0.000436102
*CONN
*I *221:B I *D sky130_fd_sc_hd__xnor2_1
*I *220:Y O *D sky130_fd_sc_hd__xnor2_1
*CAP
1 *221:B 0.0001059
2 *220:Y 0.0001059
3 *221:A *221:B 0.000169297
4 *223:A2 *221:B 5.50052e-05
*RES
1 *220:Y *221:B 20.7964 
*END

*D_NET *45 0.000918066
*CONN
*I *223:B1 I *D sky130_fd_sc_hd__o221a_1
*I *221:Y O *D sky130_fd_sc_hd__xnor2_1
*CAP
1 *223:B1 0.000266372
2 *221:Y 0.000266372
3 *223:B1 *223:B2 3.50746e-05
4 *220:A *223:B1 0.000228748
5 *220:B *223:B1 9.82116e-05
6 *223:A2 *223:B1 2.32884e-05
*RES
1 *221:Y *223:B1 24.1 
*END

*D_NET *46 0.000751201
*CONN
*I *223:C1 I *D sky130_fd_sc_hd__o221a_1
*I *222:Y O *D sky130_fd_sc_hd__nand2_1
*CAP
1 *223:C1 0.000300946
2 *222:Y 0.000300946
3 *223:C1 *222:A 0.00014931
*RES
1 *222:Y *223:C1 31.8321 
*END

*D_NET *47 0.00212976
*CONN
*I *192:A I *D sky130_fd_sc_hd__nand2_1
*I *195:A I *D sky130_fd_sc_hd__or2b_1
*I *194:A1 I *D sky130_fd_sc_hd__o21a_1
*I *224:X O *D sky130_fd_sc_hd__buf_1
*CAP
1 *192:A 0.000160519
2 *195:A 0
3 *194:A1 0.000133117
4 *224:X 0.000236661
5 *47:19 0.000318953
6 *47:6 0.000528212
7 *192:A *192:B 0.000141729
8 *192:A *56:45 0.000140684
9 *194:A1 *194:A2 0.000101982
10 *194:A1 *234:A 9.44309e-06
11 *47:6 *234:A 0.000105176
12 *47:19 *194:A2 0.000171355
13 *47:19 *56:45 8.1932e-05
*RES
1 *224:X *47:6 13.5321 
2 *47:6 *194:A1 11.9071 
3 *47:6 *47:19 8.26786 
4 *47:19 *195:A 13.8 
5 *47:19 *192:A 17.5143 
*END

*D_NET *48 0.00539874
*CONN
*I *193:A0 I *D sky130_fd_sc_hd__mux2_1
*I *222:A I *D sky130_fd_sc_hd__nand2_1
*I *223:B2 I *D sky130_fd_sc_hd__o221a_1
*I *196:A I *D sky130_fd_sc_hd__or2b_1
*I *190:A I *D sky130_fd_sc_hd__inv_2
*I *225:X O *D sky130_fd_sc_hd__dlymetal6s2s_1
*CAP
1 *193:A0 3.11675e-05
2 *222:A 0.000380921
3 *223:B2 0.000115736
4 *196:A 0
5 *190:A 0.000188164
6 *225:X 0.000660848
7 *48:36 0.000661097
8 *48:34 0.000485939
9 *48:10 0.000260995
10 *48:8 0.00102401
11 *190:A *219:A1 3.78079e-05
12 *222:A *237:A 0.000126278
13 *48:8 *196:B_N 1.21258e-05
14 *48:8 *219:A1 7.4566e-05
15 *48:10 *196:B_N 1.83053e-05
16 *48:10 *219:A1 7.92229e-06
17 *48:34 *196:B_N 7.90692e-05
18 *193:A1 *193:A0 9.83442e-05
19 *193:A1 *48:36 0.000345734
20 *193:S *48:34 0
21 *194:B1 *193:A0 4.17433e-05
22 *194:B1 *48:36 9.99853e-05
23 *223:A1 *223:B2 5.49489e-05
24 *223:A1 *48:36 9.84729e-05
25 *223:A2 *223:B2 3.08664e-05
26 *223:B1 *223:B2 3.50746e-05
27 *223:C1 *222:A 0.00014931
28 *18:12 *190:A 8.08608e-06
29 *21:10 *48:34 0.000147204
30 *22:21 *190:A 0.000124012
*RES
1 *225:X *48:8 17.55 
2 *48:8 *48:10 0.946429 
3 *48:10 *190:A 21.6036 
4 *48:10 *196:A 9.3 
5 *48:8 *48:34 15.1964 
6 *48:34 *48:36 4.23214 
7 *48:36 *223:B2 11.4964 
8 *48:36 *222:A 25.7107 
9 *48:34 *193:A0 10.2464 
*END

*D_NET *49 0.00168961
*CONN
*I *234:A I *D sky130_fd_sc_hd__buf_2
*I *194:X O *D sky130_fd_sc_hd__o21a_1
*CAP
1 *234:A 0.000713087
2 *194:X 0.000713087
3 *234:A *194:A2 0.00012306
4 Y[0] *234:A 2.57594e-05
5 *194:A1 *234:A 9.44309e-06
6 *47:6 *234:A 0.000105176
*RES
1 *194:X *234:A 37.1714 
*END

*D_NET *50 0.00102433
*CONN
*I *235:A I *D sky130_fd_sc_hd__buf_2
*I *205:X O *D sky130_fd_sc_hd__o211a_1
*CAP
1 *235:A 0.000377883
2 *205:X 0.000377883
3 *235:A *205:A1 4.0301e-05
4 *235:A *57:10 2.39441e-05
5 *202:B *235:A 5.94294e-05
6 *203:B *235:A 0.00014489
*RES
1 *205:X *235:A 34.7964 
*END

*D_NET *51 0.000878549
*CONN
*I *236:A I *D sky130_fd_sc_hd__clkbuf_4
*I *213:X O *D sky130_fd_sc_hd__o211a_1
*CAP
1 *236:A 0.000439274
2 *213:X 0.000439274
*RES
1 *213:X *236:A 35.5464 
*END

*D_NET *52 0.000733911
*CONN
*I *237:A I *D sky130_fd_sc_hd__buf_2
*I *223:X O *D sky130_fd_sc_hd__o221a_1
*CAP
1 *237:A 0.000303816
2 *223:X 0.000303816
3 *222:A *237:A 0.000126278
*RES
1 *223:X *237:A 33.3321 
*END

*D_NET *53 0.00155458
*CONN
*I *199:B1 I *D sky130_fd_sc_hd__o21a_1
*I *204:B1 I *D sky130_fd_sc_hd__a211o_1
*I *200:A I *D sky130_fd_sc_hd__or3_1
*I *226:X O *D sky130_fd_sc_hd__buf_1
*CAP
1 *199:B1 1.15176e-05
2 *204:B1 7.87561e-05
3 *200:A 0
4 *226:X 0.000193929
5 *53:17 0.000201561
6 *53:8 0.000305216
7 *204:B1 *204:A2 4.47103e-05
8 *204:B1 *60:38 1.8461e-05
9 *53:17 *204:A2 4.48647e-05
10 *199:A2 *53:17 6.8377e-06
11 *200:B *53:17 1.21258e-05
12 *200:C *53:17 9.58689e-05
13 *204:C1 *204:B1 9.66977e-05
14 *25:12 *204:B1 9.74665e-05
15 *25:12 *53:8 1.62025e-05
16 *25:12 *53:17 0.000309577
17 *26:14 *53:8 2.07878e-05
*RES
1 *226:X *53:8 12.7286 
2 *53:8 *200:A 9.3 
3 *53:8 *53:17 3.73214 
4 *53:17 *204:B1 11.4964 
5 *53:17 *199:B1 9.72857 
*END

*D_NET *54 0.00302636
*CONN
*I *213:A1 I *D sky130_fd_sc_hd__o211a_1
*I *212:A2 I *D sky130_fd_sc_hd__a211o_1
*I *215:B I *D sky130_fd_sc_hd__and2b_1
*I *209:A I *D sky130_fd_sc_hd__xnor2_1
*I *227:X O *D sky130_fd_sc_hd__buf_1
*CAP
1 *213:A1 0.000110628
2 *212:A2 0.000114591
3 *215:B 0
4 *209:A 0
5 *227:X 0.000391293
6 *54:38 0.000450858
7 *54:23 0.000418048
8 *54:12 0.000583701
9 *209:B *54:12 3.43995e-05
10 *210:A *212:A2 2.38651e-06
11 *211:A *212:A2 1.42165e-05
12 *213:A2 *213:A1 5.12928e-05
13 *213:C1 *212:A2 4.6361e-05
14 *215:A_N *54:23 9.36522e-05
15 *216:A2 *54:23 0.000228799
16 *216:A2 *54:38 0.000119614
17 *221:A *54:23 1.87331e-05
18 *221:A *54:38 6.64739e-05
19 *227:A *54:12 0
20 *31:8 *213:A1 0.000266165
21 *31:8 *54:38 1.51488e-05
*RES
1 *227:X *54:12 23.2464 
2 *54:12 *209:A 9.3 
3 *54:12 *54:23 4.67857 
4 *54:23 *215:B 9.3 
5 *54:23 *54:38 4.60714 
6 *54:38 *212:A2 20.2464 
7 *54:38 *213:A1 12.3179 
*END

*D_NET *55 0.00161999
*CONN
*I *217:B I *D sky130_fd_sc_hd__nor2_1
*I *214:B I *D sky130_fd_sc_hd__and2_1
*I *228:X O *D sky130_fd_sc_hd__clkbuf_1
*CAP
1 *217:B 0.000266729
2 *214:B 0
3 *228:X 0.000292926
4 *55:10 0.000559655
5 *217:B *217:A 0.00022104
6 *217:B *59:12 5.49489e-05
7 *55:10 *59:12 0.000149959
8 *222:B *217:B 3.36782e-05
9 *228:A *55:10 1.83136e-05
10 *232:A *55:10 2.27416e-05
*RES
1 *228:X *55:10 18.3357 
2 *55:10 *214:B 13.8 
3 *55:10 *217:B 28.2107 
*END

*D_NET *56 0.00597179
*CONN
*I *219:A1 I *D sky130_fd_sc_hd__o31a_1
*I *192:B I *D sky130_fd_sc_hd__nand2_1
*I *195:B_N I *D sky130_fd_sc_hd__or2b_1
*I *194:A2 I *D sky130_fd_sc_hd__o21a_1
*I *198:A1 I *D sky130_fd_sc_hd__a21oi_1
*I *197:A I *D sky130_fd_sc_hd__and3_1
*I *207:A1 I *D sky130_fd_sc_hd__o21ai_1
*I *229:X O *D sky130_fd_sc_hd__clkbuf_2
*CAP
1 *219:A1 0.000531202
2 *192:B 0.000147073
3 *195:B_N 0.000117075
4 *194:A2 0.00015455
5 *198:A1 0
6 *197:A 0
7 *207:A1 0.000256426
8 *229:X 0.000284047
9 *56:45 0.000397879
10 *56:43 0.000370475
11 *56:41 0.000822402
12 *56:16 0.000420379
13 *56:8 0.000177158
14 *56:6 0.000491303
15 *219:A1 *196:B_N 9.74665e-05
16 *219:A1 *219:A3 1.59373e-05
17 *56:6 *198:B1 5.33005e-05
18 *56:6 *57:41 6.93704e-06
19 *56:8 *57:41 9.35114e-06
20 *56:16 *57:41 1.13883e-05
21 *56:41 *57:41 1.12669e-05
22 *190:A *219:A1 3.78079e-05
23 *192:A *192:B 0.000141729
24 *192:A *56:45 0.000140684
25 *194:A1 *194:A2 0.000101982
26 *197:C *56:16 3.63493e-05
27 *198:A2 *56:16 6.28459e-05
28 *198:A2 *56:41 5.38444e-06
29 *207:B1 *207:A1 6.96806e-05
30 *219:B1 *219:A1 0.00012585
31 *234:A *194:A2 0.00012306
32 *22:30 *207:A1 0.000162847
33 *22:30 *56:16 2.32275e-05
34 *23:12 *56:6 1.32293e-05
35 *23:12 *56:8 5.66472e-05
36 *23:12 *56:16 9.99853e-05
37 *24:8 *56:41 5.90911e-05
38 *47:19 *194:A2 0.000171355
39 *47:19 *56:45 8.1932e-05
40 *48:8 *219:A1 7.4566e-05
41 *48:10 *219:A1 7.92229e-06
*RES
1 *229:X *56:6 13.5321 
2 *56:6 *56:8 0.535714 
3 *56:8 *56:16 3.57143 
4 *56:16 *207:A1 13.9607 
5 *56:16 *197:A 9.3 
6 *56:8 *198:A1 9.3 
7 *56:6 *56:41 8.08929 
8 *56:41 *56:43 1.64286 
9 *56:43 *56:45 3.16071 
10 *56:45 *194:A2 18.2286 
11 *56:45 *195:B_N 15.5679 
12 *56:43 *192:B 16.4071 
13 *56:41 *219:A1 23.3893 
*END

*D_NET *57 0.00661317
*CONN
*I *205:A1 I *D sky130_fd_sc_hd__o211a_1
*I *198:B1 I *D sky130_fd_sc_hd__a21oi_1
*I *207:A2 I *D sky130_fd_sc_hd__o21ai_1
*I *219:A2 I *D sky130_fd_sc_hd__o31a_1
*I *197:B I *D sky130_fd_sc_hd__and3_1
*I *204:A2 I *D sky130_fd_sc_hd__a211o_1
*I *230:X O *D sky130_fd_sc_hd__dlymetal6s2s_1
*CAP
1 *205:A1 0.000292621
2 *198:B1 1.34598e-05
3 *207:A2 0
4 *219:A2 0.00017482
5 *197:B 0
6 *204:A2 0.000259117
7 *230:X 0.000391964
8 *57:50 0.000493515
9 *57:41 0.000580656
10 *57:35 0.000576707
11 *57:12 0.000746998
12 *57:10 0.00087118
13 *204:A2 *60:29 5.49489e-05
14 *204:A2 *60:38 3.38774e-05
15 *198:A2 *57:41 7.09928e-05
16 *199:A2 *204:A2 7.20217e-06
17 *200:C *204:A2 1.08528e-05
18 *200:C *57:35 7.71611e-05
19 *202:A *205:A1 6.85026e-05
20 *202:A *57:12 0
21 *202:B *205:A1 7.6997e-05
22 *203:A *204:A2 4.19624e-06
23 *203:A *57:35 0
24 *203:B *57:10 2.37713e-05
25 *203:B *57:12 0.000120368
26 *204:B1 *204:A2 4.47103e-05
27 *204:C1 *204:A2 9.66977e-05
28 *205:A2 *205:A1 9.54798e-06
29 *207:B1 *219:A2 0.000100037
30 *207:B1 *57:50 0.000180202
31 *235:A *205:A1 4.0301e-05
32 *235:A *57:10 2.39441e-05
33 *17:53 *204:A2 0.000274213
34 *22:30 *57:50 0.000382073
35 *23:12 *204:A2 9.11048e-06
36 *24:8 *57:35 0.000302288
37 *24:8 *57:41 5.74242e-05
38 *25:12 *57:35 5.60463e-06
39 *53:17 *204:A2 4.48647e-05
40 *56:6 *198:B1 5.33005e-05
41 *56:6 *57:41 6.93704e-06
42 *56:8 *57:41 9.35114e-06