*SPEF "ieee 1481-1999"
*DESIGN "alu"
*DATE "13:14:34 Thursday July 10, 2025"
*VENDOR "The OpenROAD Project"
*PROGRAM "OpenROAD"
*VERSION "b16bda7e82721d10566ff7e2b68f1ff0be9f9e38"
*DESIGN_FLOW "NAME_SCOPE LOCAL" "PIN_CAP NONE"
*DIVIDER /
*DELIMITER :
*BUS_DELIMITER []
*T_UNIT 1 NS
*C_UNIT 1 PF
*R_UNIT 1 OHM
*L_UNIT 1 HENRY

*NAME_MAP
*1 A[0]
*2 A[1]
*3 A[2]
*4 A[3]
*5 B[0]
*6 B[1]
*7 B[2]
*8 B[3]
*9 SEL[0]
*10 SEL[1]
*13 Y[0]
*14 Y[1]
*15 Y[2]
*16 Y[3]
*17 _00_
*18 _01_
*19 _02_
*20 _03_
*21 _04_
*22 _05_
*23 _06_
*24 _07_
*25 _08_
*26 _09_
*27 _10_
*28 _11_
*29 _12_
*30 _13_
*31 _14_
*32 _15_
*33 _16_
*34 _17_
*35 _18_
*36 _19_
*37 _20_
*38 _21_
*39 _22_
*40 _23_
*41 _24_
*42 _25_
*43 _26_
*44 _27_
*45 _28_
*46 _29_
*47 net1
*48 net10
*49 net11
*50 net12
*51 net13
*52 net14
*53 net2
*54 net3
*55 net4
*56 net5
*57 net6
*58 net7
*59 net8
*60 net9
*61 FILLER_0_0_15
*62 FILLER_0_0_20
*63 FILLER_0_0_27
*64 FILLER_0_0_29
*65 FILLER_0_0_3
*66 FILLER_0_0_35
*67 FILLER_0_0_47
*68 FILLER_0_0_55
*69 FILLER_0_0_57
*70 FILLER_0_0_65
*71 FILLER_0_10_15
*72 FILLER_0_10_27
*73 FILLER_0_10_29
*74 FILLER_0_10_3
*75 FILLER_0_10_41
*76 FILLER_0_10_53
*77 FILLER_0_10_57
*78 FILLER_0_11_15
*79 FILLER_0_11_27
*80 FILLER_0_11_29
*81 FILLER_0_11_3
*82 FILLER_0_11_37
*83 FILLER_0_11_49
*84 FILLER_0_11_55
*85 FILLER_0_11_57
*86 FILLER_0_11_65
*87 FILLER_0_1_15
*88 FILLER_0_1_24
*89 FILLER_0_1_3
*90 FILLER_0_1_36
*91 FILLER_0_1_44
*92 FILLER_0_1_51
*93 FILLER_0_1_55
*94 FILLER_0_1_57
*95 FILLER_0_2_3
*96 FILLER_0_2_38
*97 FILLER_0_2_59
*98 FILLER_0_2_63
*99 FILLER_0_3_15
*100 FILLER_0_3_20
*101 FILLER_0_3_3
*102 FILLER_0_3_32
*103 FILLER_0_3_44
*104 FILLER_0_3_48
*105 FILLER_0_3_52
*106 FILLER_0_3_57
*107 FILLER_0_3_65
*108 FILLER_0_4_15
*109 FILLER_0_4_27
*110 FILLER_0_4_29
*111 FILLER_0_4_3
*112 FILLER_0_4_37
*113 FILLER_0_4_46
*114 FILLER_0_5_15
*115 FILLER_0_5_27
*116 FILLER_0_5_3
*117 FILLER_0_5_33
*118 FILLER_0_5_38
*119 FILLER_0_5_42
*120 FILLER_0_5_46
*121 FILLER_0_5_57
*122 FILLER_0_5_63
*123 FILLER_0_6_11
*124 FILLER_0_6_19
*125 FILLER_0_6_27
*126 FILLER_0_6_29
*127 FILLER_0_6_3
*128 FILLER_0_6_41
*129 FILLER_0_6_53
*130 FILLER_0_7_18
*131 FILLER_0_7_22
*132 FILLER_0_7_30
*133 FILLER_0_7_36
*134 FILLER_0_7_55
*135 FILLER_0_7_6
*136 FILLER_0_7_62
*137 FILLER_0_8_27
*138 FILLER_0_8_3
*139 FILLER_0_8_37
*140 FILLER_0_8_63
*141 FILLER_0_8_67
*142 FILLER_0_8_9
*143 FILLER_0_9_12
*144 FILLER_0_9_20
*145 FILLER_0_9_27
*146 FILLER_0_9_39
*147 FILLER_0_9_47
*148 FILLER_0_9_55
*149 FILLER_0_9_57
*150 FILLER_0_9_6
*151 FILLER_0_9_63
*152 PHY_EDGE_ROW_0_Left_12
*153 PHY_EDGE_ROW_0_Right_0
*154 PHY_EDGE_ROW_10_Left_22
*155 PHY_EDGE_ROW_10_Right_10
*156 PHY_EDGE_ROW_11_Left_23
*157 PHY_EDGE_ROW_11_Right_11
*158 PHY_EDGE_ROW_1_Left_13
*159 PHY_EDGE_ROW_1_Right_1
*160 PHY_EDGE_ROW_2_Left_14
*161 PHY_EDGE_ROW_2_Right_2
*162 PHY_EDGE_ROW_3_Left_15
*163 PHY_EDGE_ROW_3_Right_3
*164 PHY_EDGE_ROW_4_Left_16
*165 PHY_EDGE_ROW_4_Right_4
*166 PHY_EDGE_ROW_5_Left_17
*167 PHY_EDGE_ROW_5_Right_5
*168 PHY_EDGE_ROW_6_Left_18
*169 PHY_EDGE_ROW_6_Right_6
*170 PHY_EDGE_ROW_7_Left_19
*171 PHY_EDGE_ROW_7_Right_7
*172 PHY_EDGE_ROW_8_Left_20
*173 PHY_EDGE_ROW_8_Right_8
*174 PHY_EDGE_ROW_9_Left_21
*175 PHY_EDGE_ROW_9_Right_9
*176 TAP_TAPCELL_ROW_0_24
*177 TAP_TAPCELL_ROW_0_25
*178 TAP_TAPCELL_ROW_10_35
*179 TAP_TAPCELL_ROW_11_36
*180 TAP_TAPCELL_ROW_11_37
*181 TAP_TAPCELL_ROW_1_26
*182 TAP_TAPCELL_ROW_2_27
*183 TAP_TAPCELL_ROW_3_28
*184 TAP_TAPCELL_ROW_4_29
*185 TAP_TAPCELL_ROW_5_30
*186 TAP_TAPCELL_ROW_6_31
*187 TAP_TAPCELL_ROW_7_32
*188 TAP_TAPCELL_ROW_8_33
*189 TAP_TAPCELL_ROW_9_34
*190 _30_
*191 _31_
*192 _32_
*193 _33_
*194 _34_
*195 _35_
*196 _36_
*197 _37_
*198 _38_
*199 _39_
*200 _40_
*201 _41_
*202 _42_
*203 _43_
*204 _44_
*205 _45_
*206 _46_
*207 _47_
*208 _48_
*209 _49_
*210 _50_
*211 _51_
*212 _52_
*213 _53_
*214 _54_
*215 _55_
*216 _56_
*217 _57_
*218 _58_
*219 _59_
*220 _60_
*221 _61_
*222 _62_
*223 _63_
*224 input1
*225 input10
*226 input2
*227 input3
*228 input4
*229 input5
*230 input6
*231 input7
*232 input8
*233 input9
*234 output11
*235 output12
*236 output13
*237 output14

*PORTS
A[0] I
A[1] I
A[2] I
A[3] I
B[0] I
B[1] I
B[2] I
B[3] I
SEL[0] I
SEL[1] I
Y[0] O
Y[1] O
Y[2] O
Y[3] O

*D_NET *1 0.000678436
*CONN
*P A[0] I
*I *224:A I *D sky130_fd_sc_hd__buf_1
*CAP
1 A[0] 0.000315018
2 *224:A 0.000315018
3 *224:A Y[0] 4.84007e-05
*RES
1 A[0] *224:A 5.67003 
*END

*D_NET *2 0.000616906
*CONN
*P A[1] I
*I *226:A I *D sky130_fd_sc_hd__buf_1
*CAP
1 A[1] 0.000264136
2 *226:A 0.000264136
3 *226:A Y[1] 4.90639e-05
4 *226:A *229:A 0
5 *226:A *233:A 3.95694e-05
*RES
1 A[1] *226:A 5.16003 
*END

*D_NET *3 0.000647859
*CONN
*P A[2] I
*I *227:A I *D sky130_fd_sc_hd__buf_1
*CAP
1 A[2] 0.000309676
2 *227:A 0.000309676
3 *227:A *231:A 2.85068e-05
4 *227:A *54:12 0
*RES
1 A[2] *227:A 6.63177 
*END

*D_NET *4 0.000881646
*CONN
*P A[3] I
*I *228:A I *D sky130_fd_sc_hd__clkbuf_1
*CAP
1 A[3] 0.00043194
2 *228:A 0.00043194
3 *228:A Y[3] 0
4 *228:A *232:A 0
5 *228:A *55:10 1.77665e-05
*RES
1 A[3] *228:A 11.04 
*END

*D_NET *5 0.000878534
*CONN
*P B[0] I
*I *229:A I *D sky130_fd_sc_hd__clkbuf_2
*CAP
1 B[0] 0.000400645
2 *229:A 0.000400645
3 *229:A Y[0] 0
4 *229:A *225:A 3.76749e-05
5 *229:A *233:A 3.95694e-05
6 *226:A *229:A 0
*RES
1 B[0] *229:A 6.2383 
*END

*D_NET *6 0.000623981
*CONN
*P B[1] I
*I *230:A I *D sky130_fd_sc_hd__dlymetal6s2s_1
*CAP
1 B[1] 0.000292206
2 *230:A 0.000292206
3 *230:A Y[1] 3.95694e-05
*RES
1 B[1] *230:A 7.4637 
*END

*D_NET *7 0.000533167
*CONN
*P B[2] I
*I *231:A I *D sky130_fd_sc_hd__buf_1
*CAP
1 B[2] 0.00025233
2 *231:A 0.00025233
3 *227:A *231:A 2.85068e-05
*RES
1 B[2] *231:A 6.8343 
*END

*D_NET *8 0.00119247
*CONN
*P B[3] I
*I *232:A I *D sky130_fd_sc_hd__clkbuf_1
*CAP
1 B[3] 0.000585682
2 *232:A 0.000585682
3 *232:A *55:10 2.11084e-05
4 *228:A *232:A 0
*RES
1 B[3] *232:A 14.55 
*END

*D_NET *9 0.000571628
*CONN
*P SEL[0] I
*I *233:A I *D sky130_fd_sc_hd__buf_1
*CAP
1 SEL[0] 0.000246244
2 *233:A 0.000246244
3 *226:A *233:A 3.95694e-05
4 *229:A *233:A 3.95694e-05
*RES
1 SEL[0] *233:A 6.9537 
*END

*D_NET *10 0.000672353
*CONN
*P SEL[1] I
*I *225:A I *D sky130_fd_sc_hd__dlymetal6s2s_1
*CAP
1 SEL[1] 0.000297554
2 *225:A 0.000297554
3 *225:A Y[0] 3.95694e-05
4 *229:A *225:A 3.76749e-05
*RES
1 SEL[1] *225:A 7.9737 
*END

*D_NET *13 0.000706636
*CONN
*P Y[0] O
*I *234:X O *D sky130_fd_sc_hd__buf_2
*CAP
1 Y[0] 0.000297002
2 *234:X 0.000297002
3 Y[0] *234:A 2.46609e-05
4 *224:A Y[0] 4.84007e-05
5 *225:A Y[0] 3.95694e-05
6 *229:A Y[0] 0
*RES
1 *234:X Y[0] 5.2183 
*END

*D_NET *14 0.00079293
*CONN
*P Y[1] O
*I *235:X O *D sky130_fd_sc_hd__buf_2
*CAP
1 Y[1] 0.000352149
2 *235:X 0.000352149
3 *226:A Y[1] 4.90639e-05
4 *230:A Y[1] 3.95694e-05
*RES
1 *235:X Y[1] 5.9833 
*END

*D_NET *15 0.00078846
*CONN
*P Y[2] O
*I *236:X O *D sky130_fd_sc_hd__clkbuf_4
*CAP
1 Y[2] 0.00039423
2 *236:X 0.00039423
*RES
1 *236:X Y[2] 10.605 
*END

*D_NET *16 0.000814289
*CONN
*P Y[3] O
*I *237:X O *D sky130_fd_sc_hd__buf_2
*CAP
1 Y[3] 0.000407144
2 *237:X 0.000407144
3 *228:A Y[3] 0
*RES
1 *237:X Y[3] 10.185 
*END

*D_NET *17 0.00543295
*CONN
*I *203:A I *D sky130_fd_sc_hd__nand2_1
*I *204:C1 I *D sky130_fd_sc_hd__a211o_1
*I *191:A I *D sky130_fd_sc_hd__or2_1
*I *211:A I *D sky130_fd_sc_hd__nand2_1
*I *212:C1 I *D sky130_fd_sc_hd__a211o_1
*I *190:Y O *D sky130_fd_sc_hd__inv_2
*CAP
1 *203:A 0.00069234
2 *204:C1 1.89564e-05
3 *191:A 3.43921e-05
4 *211:A 0.000312765
5 *212:C1 0.000172267
6 *190:Y 0.000149567
7 *17:53 0.000953083
8 *17:14 0.000642292
9 *17:12 0.000216135
10 *17:10 0.000415838
11 *203:A *203:B 4.66108e-05
12 *203:A *204:A2 4.61701e-06
13 *203:A *205:B1 5.83121e-06
14 *203:A *21:10 5.05774e-06
15 *203:A *26:14 0.00011099
16 *203:A *57:35 0
17 *204:C1 *204:A2 8.41307e-05
18 *204:C1 *204:B1 8.41307e-05
19 *211:A *212:A2 1.49348e-05
20 *211:A *213:B1 0.000198404
21 *211:A *213:C1 0.00011178
22 *212:C1 *221:A 5.13924e-05
23 *212:C1 *58:8 4.77757e-05
24 *212:C1 *58:21 0.000223918
25 *17:10 *18:12 0.000135324
26 *17:10 *18:28 1.46781e-05
27 *17:12 *212:A1 1.79098e-05
28 *17:14 *212:A1 2.62602e-05
29 *17:14 *18:8 4.66108e-05
30 *17:14 *58:21 0.000271713
31 *17:53 *204:A2 0.000239782
32 *17:53 *212:A1 1.79174e-05
33 *17:53 *21:10 2.43962e-05
34 *17:53 *60:38 4.11508e-05
*RES
1 *190:Y *17:10 8.765 
2 *17:10 *17:12 0.45 
3 *17:12 *17:14 3.21 
4 *17:14 *212:C1 8.735 
5 *17:14 *211:A 11.78 
6 *17:12 *191:A 2.215 
7 *17:10 *17:53 6.17 
8 *17:53 *204:C1 4.395 
9 *17:53 *203:A 7.72393 
*END

*D_NET *18 0.00448073
*CONN
*I *213:A2 I *D sky130_fd_sc_hd__o211a_1
*I *205:A2 I *D sky130_fd_sc_hd__o211a_1
*I *193:A1 I *D sky130_fd_sc_hd__mux2_1
*I *223:A1 I *D sky130_fd_sc_hd__o221a_1
*I *191:X O *D sky130_fd_sc_hd__or2_1
*CAP
1 *213:A2 0.000139872
2 *205:A2 0.000500443
3 *193:A1 0.000162049
4 *223:A1 5.01233e-05
5 *191:X 3.69588e-05
6 *18:28 0.000805075
7 *18:12 0.000670044
8 *18:8 0.000659591
9 *193:A1 *193:A0 8.52883e-05
10 *193:A1 *21:10 1.9872e-05
11 *193:A1 *48:36 0.000298971
12 *205:A2 *202:A 1.7635e-05
13 *205:A2 *205:A1 8.7152e-06
14 *213:A2 *213:A1 4.69765e-05
15 *213:A2 *31:8 0.000102286
16 *223:A1 *223:B2 4.77719e-05
17 *223:A1 *48:36 8.53011e-05
18 *18:12 *190:A 8.34904e-06
19 *18:12 *219:A3 0.000302523
20 *18:12 *22:21 6.04287e-05
21 *18:12 *58:21 0.000135382
22 *18:28 *205:C1 0
23 *18:28 *58:21 4.04632e-05
24 *17:10 *18:12 0.000135324
25 *17:10 *18:28 1.46781e-05
26 *17:14 *18:8 4.66108e-05
*RES
1 *191:X *18:8 4.05 
2 *18:8 *18:12 11.795 
3 *18:12 *223:A1 2.74 
4 *18:12 *193:A1 5.5 
5 *18:8 *18:28 2.5275 
6 *18:28 *205:A2 5.51143 
7 *18:28 *213:A2 6.8325 
*END

*D_NET *19 0.000194863
*CONN
*I *193:S I *D sky130_fd_sc_hd__mux2_1
*I *192:Y O *D sky130_fd_sc_hd__nand2_1
*CAP
1 *193:S 7.93178e-05
2 *192:Y 7.93178e-05
3 *193:S *21:10 3.6227e-05
4 *193:S *48:34 0
*RES
1 *192:Y *193:S 8.58 
*END

*D_NET *20 0.000467629
*CONN
*I *194:B1 I *D sky130_fd_sc_hd__o21a_1
*I *193:X O *D sky130_fd_sc_hd__mux2_1
*CAP
1 *194:B1 0.000172416
2 *193:X 0.000172416
3 *194:B1 *193:A0 3.6355e-05
4 *194:B1 *48:36 8.64421e-05
*RES
1 *193:X *194:B1 9.72 
*END

*D_NET *21 0.00307106
*CONN
*I *202:A I *D sky130_fd_sc_hd__xnor2_1
*I *206:A1 I *D sky130_fd_sc_hd__a21o_1
*I *195:X O *D sky130_fd_sc_hd__or2b_1
*CAP
1 *202:A 0.000216292
2 *206:A1 0.000136016
3 *195:X 0.000785174
4 *21:10 0.00113748
5 *202:A *202:B 1.74869e-05
6 *202:A *205:A1 6.80704e-05
7 *202:A *205:C1 2.18707e-05
8 *202:A *206:A2 1.27848e-05
9 *202:A *57:12 0
10 *206:A1 *205:B1 1.14169e-05
11 *206:A1 *206:B1 4.24744e-05
12 *21:10 *196:B_N 0.000265174
13 *21:10 *205:C1 3.45117e-05
14 *21:10 *48:34 0.000145041
15 *21:10 *60:29 7.4075e-05
16 *193:A1 *21:10 1.9872e-05
17 *193:S *21:10 3.6227e-05
18 *203:A *21:10 5.05774e-06
19 *205:A2 *202:A 1.7635e-05
20 *17:53 *21:10 2.43962e-05
*RES
1 *195:X *21:10 16.5 
2 *21:10 *206:A1 5.19 
3 *21:10 *202:A 7.305 
*END

*D_NET *22 0.00213159
*CONN
*I *198:A2 I *D sky130_fd_sc_hd__a21oi_1
*I *197:C I *D sky130_fd_sc_hd__and3_1
*I *207:B1 I *D sky130_fd_sc_hd__o21ai_1
*I *219:B1 I *D sky130_fd_sc_hd__o31a_1
*I *196:X O *D sky130_fd_sc_hd__or2b_1
*CAP
1 *198:A2 3.43637e-05
2 *197:C 2.69186e-05
3 *207:B1 6.28337e-05
4 *219:B1 0.000116943
5 *196:X 0
6 *22:30 0.000143204
7 *22:21 0.000191841
8 *22:4 0.000164028
9 *197:C *56:16 3.221e-05
10 *198:A2 *56:16 5.86477e-05
11 *198:A2 *56:41 5.12969e-06
12 *198:A2 *57:41 6.60042e-05
13 *207:B1 *207:A1 6.62684e-05
14 *207:B1 *208:B 3.52601e-05
15 *207:B1 *219:A2 8.64488e-05
16 *207:B1 *57:50 0.000156774
17 *219:B1 *219:A1 0.000117763
18 *219:B1 *219:A3 8.64566e-05
19 *22:21 *190:A 0.000112589
20 *22:30 *207:A1 0.000153188
21 *22:30 *56:16 2.26024e-05
22 *22:30 *57:50 0.000331682
23 *18:12 *22:21 6.04287e-05
*RES
1 *196:X *22:4 1.6 
2 *22:4 *219:B1 4.405 
3 *22:4 *22:21 5.38 
4 *22:21 *207:B1 3.775 
5 *22:21 *22:30 3.21 
6 *22:30 *197:C 2.38 
7 *22:30 *198:A2 3.1 
*END

*D_NET *23 0.00124094
*CONN
*I *199:A1 I *D sky130_fd_sc_hd__o21a_1
*I *200:B I *D sky130_fd_sc_hd__or3_1
*I *197:X O *D sky130_fd_sc_hd__and3_1
*CAP
1 *199:A1 0
2 *200:B 9.81476e-05
3 *197:X 0.000251409
4 *23:12 0.000349556
5 *200:B *199:A2 4.66108e-05
6 *200:B *200:C 4.60814e-05
7 *200:B *53:17 1.19928e-05
8 *23:12 *200:C 4.17653e-05
9 *23:12 *204:A2 8.30853e-06
10 *23:12 *24:8 0.000240274
11 *23:12 *56:6 1.14192e-05
12 *23:12 *56:8 4.89362e-05
13 *23:12 *56:16 8.64421e-05
*RES
1 *197:X *23:12 10.16 
2 *23:12 *200:B 3.46 
3 *23:12 *199:A1 1.6 
*END

*D_NET *24 0.0013631
*CONN
*I *200:C I *D sky130_fd_sc_hd__or3_1
*I *199:A2 I *D sky130_fd_sc_hd__o21a_1
*I *198:Y O *D sky130_fd_sc_hd__a21oi_1
*CAP
1 *200:C 4.85699e-05
2 *199:A2 6.5267e-05
3 *198:Y 0.000101314
4 *24:8 0.000215151
5 *199:A2 *204:A2 6.69608e-06
6 *199:A2 *53:17 7.10593e-06
7 *200:C *204:A2 1.07997e-05
8 *200:C *53:17 8.35157e-05
9 *200:C *57:35 7.02694e-05
10 *24:8 *56:41 5.34461e-05
11 *24:8 *57:35 0.000274211
12 *24:8 *57:41 5.20193e-05
13 *200:B *199:A2 4.66108e-05
14 *200:B *200:C 4.60814e-05
15 *23:12 *200:C 4.17653e-05
16 *23:12 *24:8 0.000240274
*RES
1 *198:Y *24:8 7.53 
2 *24:8 *199:A2 4.395 
3 *24:8 *200:C 5.265 
*END

*D_NET *25 0.00239165
*CONN
*I *206:B1 I *D sky130_fd_sc_hd__a21o_1
*I *201:A_N I *D sky130_fd_sc_hd__and2b_1
*I *199:X O *D sky130_fd_sc_hd__o21a_1
*CAP
1 *206:B1 0.000245395
2 *201:A_N 0
3 *199:X 0.000319114
4 *25:12 0.000564508
5 *206:B1 *203:B 0.00020081
6 *206:B1 *205:B1 0.000262833
7 *206:B1 *206:A2 0.000291145
8 *25:12 *204:B1 8.46717e-05
9 *25:12 *26:14 9.05592e-05
10 *25:12 *53:8 1.54665e-05
11 *25:12 *53:17 0.000268707
12 *25:12 *57:35 5.96623e-06
13 *206:A1 *206:B1 4.24744e-05
*RES
1 *199:X *25:12 10.28 
2 *25:12 *201:A_N 1.6 
3 *25:12 *206:B1 8.755 
*END

*D_NET *26 0.00172935
*CONN
*I *201:B I *D sky130_fd_sc_hd__and2b_1
*I *206:A2 I *D sky130_fd_sc_hd__a21o_1
*I *200:X O *D sky130_fd_sc_hd__or3_1
*CAP
1 *201:B 0
2 *206:A2 0.000217486
3 *200:X 0.00020343
4 *26:14 0.000420915
5 *206:A2 *202:B 0.000121019
6 *206:A2 *203:B 8.35157e-05
7 *206:A2 *205:C1 8.7152e-06
8 *26:14 *203:B 0.000148919
9 *26:14 *53:8 1.9872e-05
10 *202:A *206:A2 1.27848e-05
11 *203:A *26:14 0.00011099
12 *206:B1 *206:A2 0.000291145
13 *25:12 *26:14 9.05592e-05
*RES
1 *200:X *26:14 9.425 
2 *26:14 *206:A2 10.115 
3 *26:14 *201:B 1.6 
*END

*D_NET *27 0.000537661
*CONN
*I *202:B I *D sky130_fd_sc_hd__xnor2_1
*I *201:X O *D sky130_fd_sc_hd__and2b_1
*CAP
1 *202:B 0.000135047
2 *201:X 0.000135047
3 *202:B *205:A1 7.01303e-05
4 *202:B *235:A 5.89302e-05
5 *202:A *202:B 1.74869e-05
6 *206:A2 *202:B 0.000121019
*RES
1 *201:X *202:B 9.72 
*END

*D_NET *28 0.00106142
*CONN
*I *203:B I *D sky130_fd_sc_hd__nand2_1
*I *202:Y O *D sky130_fd_sc_hd__xnor2_1
*CAP
1 *203:B 0.00015512
2 *202:Y 0.00015512
3 *203:B *205:B1 8.34281e-06
4 *203:B *235:A 0.000131958
5 *203:B *57:10 2.15337e-05
6 *203:B *57:12 0.000109489
7 *203:A *203:B 4.66108e-05
8 *206:A2 *203:B 8.35157e-05
9 *206:B1 *203:B 0.00020081
10 *26:14 *203:B 0.000148919
*RES
1 *202:Y *203:B 12.06 
*END

*D_NET *29 0.001102
*CONN
*I *205:B1 I *D sky130_fd_sc_hd__o211a_1
*I *203:Y O *D sky130_fd_sc_hd__nand2_1
*CAP
1 *205:B1 0.000406787
2 *203:Y 0.000406787
3 *203:A *205:B1 5.83121e-06
4 *203:B *205:B1 8.34281e-06
5 *206:A1 *205:B1 1.14169e-05
6 *206:B1 *205:B1 0.000262833
*RES
1 *203:Y *205:B1 9.065 
*END

*D_NET *30 0.000584745
*CONN
*I *205:C1 I *D sky130_fd_sc_hd__o211a_1
*I *204:X O *D sky130_fd_sc_hd__a211o_1
*CAP
1 *205:C1 0.000187771
2 *204:X 0.000187771
3 *205:C1 *60:29 2.01504e-05
4 *205:C1 *60:38 0.000123955
5 *202:A *205:C1 2.18707e-05
6 *206:A2 *205:C1 8.7152e-06
7 *18:28 *205:C1 0
8 *21:10 *205:C1 3.45117e-05
*RES
1 *204:X *205:C1 10.065 
*END

*D_NET *31 0.00242771
*CONN
*I *216:A1 I *D sky130_fd_sc_hd__a21oi_1
*I *210:A I *D sky130_fd_sc_hd__xnor2_1
*I *206:X O *D sky130_fd_sc_hd__a21o_1
*CAP
1 *216:A1 0
2 *210:A 0.000459693
3 *206:X 0.000429167
4 *31:8 0.00088886
5 *210:A *211:B 0.000166973
6 *210:A *212:A2 2.56752e-06
7 *210:A *216:A2 4.77757e-05
8 *210:A *221:A 4.54598e-05
9 *31:8 *213:A1 0.000231268
10 *31:8 *216:A2 2.20014e-05
11 *31:8 *216:B1 1.70508e-05
12 *31:8 *54:38 1.46024e-05
13 *213:A2 *31:8 0.000102286
*RES
1 *206:X *31:8 7.24 
2 *31:8 *210:A 12.845 
3 *31:8 *216:A1 1.6 
*END

*D_NET *32 0.00174356
*CONN
*I *208:B I *D sky130_fd_sc_hd__xnor2_1
*I *207:Y O *D sky130_fd_sc_hd__o21ai_1
*CAP
1 *208:B 0.00042678
2 *207:Y 0.00042678
3 *208:B *208:A 0.000721289
4 *208:B *219:A3 0.000113222
5 *208:B *58:21 2.02316e-05
6 *207:B1 *208:B 3.52601e-05
*RES
1 *207:Y *208:B 16.29 
*END

*D_NET *33 0.00106315
*CONN
*I *209:B I *D sky130_fd_sc_hd__xnor2_1
*I *215:A_N I *D sky130_fd_sc_hd__and2b_1
*I *208:Y O *D sky130_fd_sc_hd__xnor2_1
*CAP
1 *209:B 3.11236e-05
2 *215:A_N 0.000134844
3 *208:Y 0.000282525
4 *33:10 0.000448493
5 *209:B *54:12 3.11927e-05
6 *215:A_N *216:A2 4.77757e-05
7 *215:A_N *54:23 8.71965e-05
*RES
1 *208:Y *33:10 7.56 
2 *33:10 *215:A_N 5.775 
3 *33:10 *209:B 4.215 
*END

*D_NET *34 0.00110267
*CONN
*I *210:B I *D sky130_fd_sc_hd__xnor2_1
*I *216:A2 I *D sky130_fd_sc_hd__a21oi_1
*I *209:Y O *D sky130_fd_sc_hd__xnor2_1
*CAP
1 *210:B 0.000134458
2 *216:A2 0.000123573
3 *209:Y 4.6094e-05
4 *34:8 0.000304125
5 *216:A2 *216:B1 2.69217e-05
6 *216:A2 *221:A 4.66108e-05
7 *216:A2 *54:23 0.000197856
8 *216:A2 *54:38 0.000105474
9 *34:8 *221:A 0
10 *210:A *216:A2 4.77757e-05
11 *215:A_N *216:A2 4.77757e-05
12 *31:8 *216:A2 2.20014e-05
*RES
1 *209:Y *34:8 4.215 
2 *34:8 *216:A2 7.155 
3 *34:8 *210:B 5.745 
*END

*D_NET *35 0.000402747
*CONN
*I *211:B I *D sky130_fd_sc_hd__nand2_1
*I *210:Y O *D sky130_fd_sc_hd__xnor2_1
*CAP
1 *211:B 0.000117887
2 *210:Y 0.000117887
3 *210:A *211:B 0.000166973
*RES
1 *210:Y *211:B 5.645 
*END

*D_NET *36 0.000717122
*CONN
*I *213:B1 I *D sky130_fd_sc_hd__o211a_1
*I *211:Y O *D sky130_fd_sc_hd__nand2_1
*CAP
1 *213:B1 0.000259359
2 *211:Y 0.000259359
3 *211:A *213:B1 0.000198404
*RES
1 *211:Y *213:B1 11.01 
*END

*D_NET *37 0.000272229
*CONN
*I *213:C1 I *D sky130_fd_sc_hd__o211a_1
*I *212:X O *D sky130_fd_sc_hd__a211o_1
*CAP
1 *213:C1 5.70569e-05
2 *212:X 5.70569e-05
3 *213:C1 *212:A2 4.63352e-05
4 *211:A *213:C1 0.00011178
*RES
1 *212:X *213:C1 8.58 
*END

*D_NET *38 0.00174974
*CONN
*I *218:B I *D sky130_fd_sc_hd__nor2_1
*I *223:A2 I *D sky130_fd_sc_hd__o221a_1
*I *214:X O *D sky130_fd_sc_hd__and2_1
*CAP
1 *218:B 8.17636e-05
2 *223:A2 0.000368974
3 *214:X 0.000111545
4 *38:8 0.000562283
5 *218:B *218:A 3.68942e-05
6 *218:B *220:A 6.24991e-05
7 *218:B *221:A 7.41023e-05
8 *223:A2 *220:A 4.6019e-05
9 *223:A2 *220:B 9.28507e-05
10 *223:A2 *221:A 2.0187e-05
11 *223:A2 *221:B 4.77807e-05
12 *223:A2 *223:B1 2.31375e-05
13 *223:A2 *223:B2 2.86975e-05
14 *38:8 *218:A 1.89469e-05
15 *38:8 *220:A 7.03276e-05
16 *38:8 *221:A 2.50751e-05
17 *38:8 *222:B 6.02061e-05
18 *38:8 *41:10 1.84465e-05
*RES
1 *214:X *38:8 5.745 
2 *38:8 *223:A2 8.91 
3 *38:8 *218:B 5.685 
*END

*D_NET *39 0.000147522
*CONN
*I *216:B1 I *D sky130_fd_sc_hd__a21oi_1
*I *215:X O *D sky130_fd_sc_hd__and2b_1
*CAP
1 *216:B1 5.17746e-05
2 *215:X 5.17746e-05
3 *216:A2 *216:B1 2.69217e-05
4 *31:8 *216:B1 1.70508e-05
*RES
1 *215:X *216:B1 4.01 
*END

*D_NET *40 0.00235055
*CONN
*I *221:A I *D sky130_fd_sc_hd__xnor2_1
*I *216:Y O *D sky130_fd_sc_hd__a21oi_1
*CAP
1 *221:A 0.000840908
2 *216:Y 0.000840908
3 *221:A *220:A 0.000121036
4 *221:A *221:B 0.000149405
5 *221:A *41:10 5.61992e-05
6 *221:A *54:23 1.77945e-05
7 *221:A *54:38 6.14726e-05
8 *210:A *221:A 4.54598e-05
9 *212:C1 *221:A 5.13924e-05
10 *216:A2 *221:A 4.66108e-05
11 *218:B *221:A 7.41023e-05
12 *223:A2 *221:A 2.0187e-05
13 *34:8 *221:A 0
14 *38:8 *221:A 2.50751e-05
*RES
1 *216:Y *221:A 22.995 
*END

*D_NET *41 0.00150287
*CONN
*I *222:B I *D sky130_fd_sc_hd__nand2_1
*I *218:A I *D sky130_fd_sc_hd__nor2_1
*I *217:Y O *D sky130_fd_sc_hd__nor2_1
*CAP
1 *222:B 0.000122697
2 *218:A 0.000219553
3 *217:Y 0.00022907
4 *41:10 0.00057132
5 *218:A *220:A 0.000132827
6 *222:B *217:B 3.08809e-05
7 *41:10 *220:A 5.83121e-06
8 *218:B *218:A 3.68942e-05
9 *221:A *41:10 5.61992e-05
10 *38:8 *218:A 1.89469e-05
11 *38:8 *222:B 6.02061e-05
12 *38:8 *41:10 1.84465e-05
*RES
1 *217:Y *41:10 6.3525 
2 *41:10 *218:A 7.5375 
3 *41:10 *222:B 5.7525 
*END

*D_NET *42 0.000830101
*CONN
*I *220:A I *D sky130_fd_sc_hd__xnor2_1
*I *218:Y O *D sky130_fd_sc_hd__nor2_1
*CAP
1 *220:A 9.68553e-05
2 *218:Y 9.68553e-05
3 *220:A *223:B1 0.000197851
4 *218:A *220:A 0.000132827
5 *218:B *220:A 6.24991e-05
6 *221:A *220:A 0.000121036
7 *223:A2 *220:A 4.6019e-05
8 *38:8 *220:A 7.03276e-05
9 *41:10 *220:A 5.83121e-06
*RES
1 *218:Y *220:A 11.01 
*END

*D_NET *43 0.000728284
*CONN
*I *220:B I *D sky130_fd_sc_hd__xnor2_1
*I *219:X O *D sky130_fd_sc_hd__o31a_1
*CAP
1 *220:B 0.000271747
2 *219:X 0.000271747
3 *220:B *223:B1 9.19398e-05
4 *223:A2 *220:B 9.28507e-05
*RES
1 *219:X *220:B 12.105 
*END

*D_NET *44 0.000384597
*CONN
*I *221:B I *D sky130_fd_sc_hd__xnor2_1
*I *220:Y O *D sky130_fd_sc_hd__xnor2_1
*CAP
1 *221:B 9.37054e-05
2 *220:Y 9.37054e-05
3 *221:A *221:B 0.000149405
4 *223:A2 *221:B 4.77807e-05
*RES
1 *220:Y *221:B 5.045 
*END

*D_NET *45 0.000831535
*CONN
*I *223:B1 I *D sky130_fd_sc_hd__o221a_1
*I *221:Y O *D sky130_fd_sc_hd__xnor2_1
*CAP
1 *223:B1 0.000243657
2 *221:Y 0.000243657
3 *223:B1 *223:B2 3.12916e-05
4 *220:A *223:B1 0.000197851
5 *220:B *223:B1 9.19398e-05
6 *223:A2 *223:B1 2.31375e-05
*RES
1 *221:Y *223:B1 7.82 
*END

*D_NET *46 0.000671066
*CONN
*I *223:C1 I *D sky130_fd_sc_hd__o221a_1
*I *222:Y O *D sky130_fd_sc_hd__nand2_1
*CAP
1 *223:C1 0.000266145
2 *222:Y 0.000266145
3 *223:C1 *222:A 0.000138776
*RES
1 *222:Y *223:C1 10.755 
*END

*D_NET *47 0.00194497
*CONN
*I *192:A I *D sky130_fd_sc_hd__nand2_1
*I *195:A I *D sky130_fd_sc_hd__or2b_1
*I *194:A1 I *D sky130_fd_sc_hd__o21a_1
*I *224:X O *D sky130_fd_sc_hd__buf_1
*CAP
1 *192:A 0.000145406
2 *195:A 0
3 *194:A1 0.000122571
4 *224:X 0.000214811
5 *47:19 0.000288868
6 *47:6 0.000480844
7 *192:A *192:B 0.000122797
8 *192:A *56:45 0.000127554
9 *194:A1 *194:A2 9.47731e-05
10 *194:A1 *234:A 9.83921e-06
11 *47:6 *234:A 0.000107828
12 *47:19 *194:A2 0.000155489
13 *47:19 *56:45 7.41855e-05
*RES
1 *224:X *47:6 5.155 
2 *47:6 *194:A1 3.79 
3 *47:6 *47:19 5.165 
4 *47:19 *195:A 3.6 
5 *47:19 *192:A 6.72 
*END

*D_NET *48 0.0048571
*CONN
*I *193:A0 I *D sky130_fd_sc_hd__mux2_1
*I *222:A I *D sky130_fd_sc_hd__nand2_1
*I *223:B2 I *D sky130_fd_sc_hd__o221a_1
*I *196:A I *D sky130_fd_sc_hd__or2b_1
*I *190:A I *D sky130_fd_sc_hd__inv_2
*I *225:X O *D sky130_fd_sc_hd__dlymetal6s2s_1
*CAP
1 *193:A0 2.76358e-05
2 *222:A 0.000348922
3 *223:B2 0.000106488
4 *196:A 0
5 *190:A 0.000164631
6 *225:X 0.00058365
7 *48:36 0.000605687
8 *48:34 0.000439306
9 *48:10 0.000227681
10 *48:8 0.000908093
11 *190:A *219:A1 3.87574e-05
12 *222:A *237:A 0.000114524
13 *48:8 *196:B_N 1.19928e-05
14 *48:8 *219:A1 7.69385e-05
15 *48:10 *196:B_N 1.77595e-05
16 *48:10 *219:A1 8.12896e-06
17 *48:34 *196:B_N 7.20293e-05
18 *193:A1 *193:A0 8.52883e-05
19 *193:A1 *48:36 0.000298971
20 *193:S *48:34 0
21 *194:B1 *193:A0 3.6355e-05
22 *194:B1 *48:36 8.64421e-05
23 *223:A1 *223:B2 4.77719e-05
24 *223:A1 *48:36 8.53011e-05
25 *223:A2 *223:B2 2.86975e-05
26 *223:B1 *223:B2 3.12916e-05
27 *223:C1 *222:A 0.000138776
28 *18:12 *190:A 8.34904e-06
29 *21:10 *48:34 0.000145041
30 *22:21 *190:A 0.000112589
*RES
1 *225:X *48:8 8.53 
2 *48:8 *48:10 0.795 
3 *48:10 *190:A 8.375 
4 *48:10 *196:A 1.6 
5 *48:8 *48:34 9.205 
6 *48:34 *48:36 3.555 
7 *48:36 *223:B2 3.445 
8 *48:36 *222:A 11.825 
9 *48:34 *193:A0 2.395 
*END

*D_NET *49 0.0015073
*CONN
*I *234:A I *D sky130_fd_sc_hd__buf_2
*I *194:X O *D sky130_fd_sc_hd__o21a_1
*CAP
1 *234:A 0.000625062
2 *194:X 0.000625062
3 *234:A *194:A2 0.000114852
4 Y[0] *234:A 2.46609e-05
5 *194:A1 *234:A 9.83921e-06
6 *47:6 *234:A 0.000107828
*RES
1 *194:X *234:A 15.24 
*END

*D_NET *50 0.000938138
*CONN
*I *235:A I *D sky130_fd_sc_hd__buf_2
*I *205:X O *D sky130_fd_sc_hd__o211a_1
*CAP
1 *235:A 0.000341515
2 *205:X 0.000341515
3 *235:A *205:A1 4.08257e-05
4 *235:A *57:10 2.33933e-05
5 *202:B *235:A 5.89302e-05
6 *203:B *235:A 0.000131958
*RES
1 *205:X *235:A 13.245 
*END

*D_NET *51 0.00081463
*CONN
*I *236:A I *D sky130_fd_sc_hd__clkbuf_4
*I *213:X O *D sky130_fd_sc_hd__o211a_1
*CAP
1 *236:A 0.000407315
2 *213:X 0.000407315
*RES
1 *213:X *236:A 13.875 
*END

*D_NET *52 0.000671488
*CONN
*I *237:A I *D sky130_fd_sc_hd__buf_2
*I *223:X O *D sky130_fd_sc_hd__o221a_1
*CAP
1 *237:A 0.000278482
2 *223:X 0.000278482
3 *222:A *237:A 0.000114524
*RES
1 *223:X *237:A 12.015 
*END

*D_NET *53 0.00139002
*CONN
*I *199:B1 I *D sky130_fd_sc_hd__o21a_1
*I *204:B1 I *D sky130_fd_sc_hd__a211o_1
*I *200:A I *D sky130_fd_sc_hd__or3_1
*I *226:X O *D sky130_fd_sc_hd__buf_1
*CAP
1 *199:B1 1.07703e-05
2 *204:B1 6.9589e-05
3 *200:A 0
4 *226:X 0.000178575
5 *53:17 0.000177818
6 *53:8 0.000276034
7 *204:B1 *204:A2 4.20366e-05
8 *204:B1 *60:38 1.75875e-05
9 *53:17 *204:A2 4.21518e-05
10 *199:A2 *53:17 7.10593e-06
11 *200:B *53:17 1.19928e-05
12 *200:C *53:17 8.35157e-05
13 *204:C1 *204:B1 8.41307e-05
14 *25:12 *204:B1 8.46717e-05
15 *25:12 *53:8 1.54665e-05
16 *25:12 *53:17 0.000268707
17 *26:14 *53:8 1.9872e-05
*RES
1 *226:X *53:8 4.48 
2 *53:8 *200:A 1.6 
3 *53:8 *53:17 3.135 
4 *53:17 *204:B1 3.445 
5 *53:17 *199:B1 1.96 
*END

*D_NET *54 0.00271005
*CONN
*I *213:A1 I *D sky130_fd_sc_hd__o211a_1
*I *212:A2 I *D sky130_fd_sc_hd__a211o_1
*I *215:B I *D sky130_fd_sc_hd__and2b_1
*I *209:A I *D sky130_fd_sc_hd__xnor2_1
*I *227:X O *D sky130_fd_sc_hd__buf_1
*CAP
1 *213:A1 9.8714e-05
2 *212:A2 9.99822e-05
3 *215:B 0
4 *209:A 0
5 *227:X 0.000348342
6 *54:38 0.000400754
7 *54:23 0.000379152
8 *54:12 0.000525436
9 *209:B *54:12 3.11927e-05
10 *210:A *212:A2 2.56752e-06
11 *211:A *212:A2 1.49348e-05
12 *213:A2 *213:A1 4.69765e-05
13 *213:C1 *212:A2 4.63352e-05
14 *215:A_N *54:23 8.71965e-05
15 *216:A2 *54:23 0.000197856
16 *216:A2 *54:38 0.000105474
17 *221:A *54:23 1.77945e-05
18 *221:A *54:38 6.14726e-05
19 *227:A *54:12 0
20 *31:8 *213:A1 0.000231268
21 *31:8 *54:38 1.46024e-05
*RES
1 *227:X *54:12 9.755 
2 *54:12 *209:A 1.6 
3 *54:12 *54:23 3.93 
4 *54:23 *215:B 1.6 
5 *54:23 *54:38 3.87 
6 *54:38 *212:A2 7.235 
7 *54:38 *213:A1 4.135 
*END

*D_NET *55 0.00145273
*CONN
*I *217:B I *D sky130_fd_sc_hd__nor2_1
*I *214:B I *D sky130_fd_sc_hd__and2_1
*I *228:X O *D sky130_fd_sc_hd__clkbuf_1
*CAP
1 *217:B 0.000239307
2 *214:B 0
3 *228:X 0.000260319
4 *55:10 0.000499626
5 *217:B *217:A 0.00019966
6 *217:B *59:12 4.77719e-05
7 *55:10 *59:12 0.00013629
8 *222:B *217:B 3.08809e-05
9 *228:A *55:10 1.77665e-05
10 *232:A *55:10 2.11084e-05
*RES
1 *228:X *55:10 7.41 
2 *55:10 *214:B 3.6 
3 *55:10 *217:B 12.145 
*END

*D_NET *56 0.00542651
*CONN
*I *219:A1 I *D sky130_fd_sc_hd__o31a_1
*I *192:B I *D sky130_fd_sc_hd__nand2_1
*I *195:B_N I *D sky130_fd_sc_hd__or2b_1
*I *194:A2 I *D sky130_fd_sc_hd__o21a_1
*I *198:A1 I *D sky130_fd_sc_hd__a21oi_1
*I *197:A I *D sky130_fd_sc_hd__and3_1
*I *207:A1 I *D sky130_fd_sc_hd__o21ai_1
*I *229:X O *D sky130_fd_sc_hd__clkbuf_2
*CAP
1 *219:A1 0.000483227
2 *192:B 0.000134855
3 *195:B_N 0.000107277
4 *194:A2 0.000137582
5 *198:A1 0
6 *197:A 0
7 *207:A1 0.00022996
8 *229:X 0.000257185
9 *56:45 0.000359283
10 *56:43 0.000337252
11 *56:41 0.000747286
12 *56:16 0.000375346
13 *56:8 0.00015679
14 *56:6 0.000444676
15 *219:A1 *196:B_N 8.46717e-05
16 *219:A1 *219:A3 1.52352e-05
17 *56:6 *198:B1 4.66108e-05
18 *56:6 *57:41 7.18795e-06
19 *56:8 *57:41 9.76407e-06
20 *56:16 *57:41 1.16854e-05
21 *56:41 *57:41 1.11025e-05
22 *190:A *219:A1 3.87574e-05
23 *192:A *192:B 0.000122797
24 *192:A *56:45 0.000127554
25 *194:A1 *194:A2 9.47731e-05
26 *197:C *56:16 3.221e-05
27 *198:A2 *56:16 5.86477e-05
28 *198:A2 *56:41 5.12969e-06
29 *207:B1 *207:A1 6.62684e-05
30 *219:B1 *219:A1 0.000117763
31 *234:A *194:A2 0.000114852
32 *22:30 *207:A1 0.000153188
33 *22:30 *56:16 2.26024e-05
34 *23:12 *56:6 1.14192e-05
35 *23:12 *56:8 4.89362e-05
36 *23:12 *56:16 8.64421e-05
37 *24:8 *56:41 5.34461e-05
38 *47:19 *194:A2 0.000155489
39 *47:19 *56:45 7.41855e-05
40 *48:8 *219:A1 7.69385e-05
41 *48:10 *219:A1 8.12896e-06
*RES
1 *229:X *56:6 5.155 
2 *56:6 *56:8 0.45 
3 *56:8 *56:16 3 
4 *56:16 *207:A1 5.515 
5 *56:16 *197:A 1.6 
6 *56:8 *198:A1 1.6 
7 *56:6 *56:41 5.015 
8 *56:41 *56:43 1.38 
9 *56:43 *56:45 2.655 
10 *56:45 *194:A2 7.32 
11 *56:45 *195:B_N 5.085 
12 *56:43 *192:B 5.79 
13 *56:41 *219:A1 11.655 
*END

*D_NET *57 0.00590571
*CONN
*I *205:A1 I *D sky130_fd_sc_hd__o211a_1
*I *198:B1 I *D sky130_fd_sc_hd__a21oi_1
*I *207:A2 I *D sky130_fd_sc_hd__o21ai_1
*I *219:A2 I *D sky130_fd_sc_hd__o31a_1
*I *197:B I *D sky130_fd_sc_hd__and3_1
*I *204:A2 I *D sky130_fd_sc_hd__a211o_1
*I *230:X O *D sky130_fd_sc_hd__dlymetal6s2s_1
*CAP
1 *205:A1 0.000249761
2 *198:B1 1.10216e-05
3 *207:A2 0
4 *219:A2 0.000159432
5 *197:B 0
6 *204:A2 0.000231149
7 *230:X 0.00036427
8 *57:50 0.000442572
9 *57:41 0.000512317
10 *57:35 0.000507015
11 *57:12 0.000661393
12 *57:10 0.000777459
13 *204:A2 *60:29 4.77719e-05
14 *204:A2 *60:38 3.11409e-05
15 *198:A2 *57:41 6.60042e-05
16 *199:A2 *204:A2 6.69608e-06
17 *200:C *204:A2 1.07997e-05
18 *200:C *57:35 7.02694e-05
19 *202:A *205:A1 6.80704e-05
20 *202:A *57:12 0
21 *202:B *205:A1 7.01303e-05
22 *203:A *204:A2 4.61701e-06
23 *203:A *57:35 0
24 *203:B *57:10 2.15337e-05
25 *203:B *57:12 0.000109489
26 *204:B1 *204:A2 4.20366e-05
27 *204:C1 *204:A2 8.41307e-05
28 *205:A2 *205:A1 8.7152e-06
29 *207:B1 *219:A2 8.64488e-05
30 *207:B1 *57:50 0.000156774
31 *235:A *205:A1 4.08257e-05
32 *235:A *57:10 2.33933e-05
33 *17:53 *204:A2 0.000239782
34 *22:30 *57:50 0.000331682
35 *23:12 *204:A2 8.30853e-06
36 *24:8 *57:35 0.000274211
37 *24:8 *57:41 5.20193e-05
38 *25:12 *57:35 5.96623e-06
39 *53:17 *204:A2 4.21518e-05
40 *56:6 *198:B1 4.66108e-05
41 *56:6 *57:41 7.18795e-06
42 *56:8 *57:41 9.76407e-06
43 *56:16 *57:41 1.16854e-05
44 *56:41 *57:41 1.11025e-05
*RES
1 *230:X *57:10 9.465 
2 *57:10 *57:12 2.7825 
3 *57:12 *204:A2 9.1725 
4 *57:12 *57:35 5.2725 
5 *57:35 *57:41 5.39 
6 *57:41 *197:B 1.6 
7 *57:41 *57:50 4.95 
8 *57:50 *219:A2 8.12 